gem5 Simulator System.  http://gem5.org
gem5 is copyrighted software; use the --copyright option for details.

gem5 compiled Mar  1 2019 12:02:37
gem5 started Mar  1 2019 12:03:31
gem5 executing on ligangyi-GE62-6QC, pid 15278
command line: ./build/ARM/gem5.opt --debug-flags=IEW ./configs/example/se.py --cpu-type=DerivO3CPU --caches -c ./tests/test-progs/hello/bin/arm/linux/hello

Global frequency set at 1000000000000 ticks per second
      0: global: RegFile: Setting int register 13 to 0xbefffee0
      0: global: RegFile: Setting int register 0 to 0
      0: global: RegFile: Setting int register 1 to 0xbeffffa2
      0: global: RegFile: Setting int register 2 to 0
**** REAL SIMULATION ****
      0: system.cpu.iew: Issue: Processing [tid:0]
      0: system.cpu.iew: [tid:0] Not blocked, so attempting to run dispatch.
      0: system.cpu.iew: Processing [tid:0]
      0: system.cpu.iew: [tid:0], Dispatch dispatched 0 instructions.
      0: system.cpu.iew: IQ has 64 free entries (Can schedule: 0).  LQ has 32 free entries. SQ has 32 free entries.
      0: system.cpu.iew: IEW switching to idle
    500: system.cpu.iew: Issue: Processing [tid:0]
    500: system.cpu.iew: [tid:0]: Squashing all instructions.
    500: system.cpu.iew: [tid:0]: Removing skidbuffer instructions until [sn:0].
    500: system.cpu.iew: [tid:0]: Removing incoming rename instructions
    500: system.cpu.iew: Processing [tid:0]
    500: system.cpu.iew: [tid:0], Dispatch dispatched 0 instructions.
    500: system.cpu.iew: IQ has 64 free entries (Can schedule: 0).  LQ has 32 free entries. SQ has 32 free entries.
   1000: system.cpu.iew: Issue: Processing [tid:0]
   1000: system.cpu.iew: [tid:0]: Done squashing, switching to running.
   1000: system.cpu.iew: [tid:0] Not blocked, so attempting to run dispatch.
   1000: system.cpu.iew: Processing [tid:0]
   1000: system.cpu.iew: [tid:0], Dispatch dispatched 0 instructions.
   1000: system.cpu.iew: IQ has 64 free entries (Can schedule: 0).  LQ has 32 free entries. SQ has 32 free entries.
   1500: system.cpu.iew: Issue: Processing [tid:0]
   1500: system.cpu.iew: [tid:0] Not blocked, so attempting to run dispatch.
   1500: system.cpu.iew: Processing [tid:0]
   1500: system.cpu.iew: [tid:0], Dispatch dispatched 0 instructions.
   1500: system.cpu.iew: IQ has 64 free entries (Can schedule: 0).  LQ has 32 free entries. SQ has 32 free entries.
   2000: system.cpu.iew: Issue: Processing [tid:0]
   2000: system.cpu.iew: [tid:0] Not blocked, so attempting to run dispatch.
   2000: system.cpu.iew: Processing [tid:0]
   2000: system.cpu.iew: [tid:0], Dispatch dispatched 0 instructions.
   2000: system.cpu.iew: IQ has 64 free entries (Can schedule: 0).  LQ has 32 free entries. SQ has 32 free entries.
   2500: system.cpu.iew: Issue: Processing [tid:0]
   2500: system.cpu.iew: [tid:0] Not blocked, so attempting to run dispatch.
   2500: system.cpu.iew: Processing [tid:0]
   2500: system.cpu.iew: [tid:0], Dispatch dispatched 0 instructions.
   2500: system.cpu.iew: IQ has 64 free entries (Can schedule: 0).  LQ has 32 free entries. SQ has 32 free entries.
   3000: system.cpu.iew: Issue: Processing [tid:0]
   3000: system.cpu.iew: [tid:0] Not blocked, so attempting to run dispatch.
   3000: system.cpu.iew: Processing [tid:0]
   3000: system.cpu.iew: [tid:0], Dispatch dispatched 0 instructions.
   3000: system.cpu.iew: IQ has 64 free entries (Can schedule: 0).  LQ has 32 free entries. SQ has 32 free entries.
   3500: system.cpu.iew: Issue: Processing [tid:0]
   3500: system.cpu.iew: [tid:0] Not blocked, so attempting to run dispatch.
   3500: system.cpu.iew: Processing [tid:0]
   3500: system.cpu.iew: [tid:0], Dispatch dispatched 0 instructions.
   3500: system.cpu.iew: IQ has 64 free entries (Can schedule: 0).  LQ has 32 free entries. SQ has 32 free entries.
   4000: system.cpu.iew: Issue: Processing [tid:0]
   4000: system.cpu.iew: [tid:0] Not blocked, so attempting to run dispatch.
   4000: system.cpu.iew: Processing [tid:0]
   4000: system.cpu.iew: [tid:0], Dispatch dispatched 0 instructions.
   4000: system.cpu.iew: IQ has 64 free entries (Can schedule: 0).  LQ has 32 free entries. SQ has 32 free entries.
   4500: system.cpu.iew: Issue: Processing [tid:0]
   4500: system.cpu.iew: [tid:0] Not blocked, so attempting to run dispatch.
   4500: system.cpu.iew: Processing [tid:0]
   4500: system.cpu.iew: [tid:0], Dispatch dispatched 0 instructions.
   4500: system.cpu.iew: IQ has 64 free entries (Can schedule: 0).  LQ has 32 free entries. SQ has 32 free entries.
   5000: system.cpu.iew: Issue: Processing [tid:0]
   5000: system.cpu.iew: [tid:0] Not blocked, so attempting to run dispatch.
   5000: system.cpu.iew: Processing [tid:0]
   5000: system.cpu.iew: [tid:0], Dispatch dispatched 0 instructions.
   5000: system.cpu.iew: IQ has 64 free entries (Can schedule: 0).  LQ has 32 free entries. SQ has 32 free entries.
   5500: system.cpu.iew: Issue: Processing [tid:0]
   5500: system.cpu.iew: [tid:0] Not blocked, so attempting to run dispatch.
   5500: system.cpu.iew: Processing [tid:0]
   5500: system.cpu.iew: [tid:0], Dispatch dispatched 0 instructions.
   5500: system.cpu.iew: IQ has 64 free entries (Can schedule: 0).  LQ has 32 free entries. SQ has 32 free entries.
  78500: system.cpu.iew: Issue: Processing [tid:0]
  78500: system.cpu.iew: [tid:0] Not blocked, so attempting to run dispatch.
  78500: system.cpu.iew: Processing [tid:0]
  78500: system.cpu.iew: [tid:0], Dispatch dispatched 0 instructions.
  78500: system.cpu.iew: IQ has 64 free entries (Can schedule: 0).  LQ has 32 free entries. SQ has 32 free entries.
  79000: system.cpu.iew: Issue: Processing [tid:0]
  79000: system.cpu.iew: [tid:0] Not blocked, so attempting to run dispatch.
  79000: system.cpu.iew: Processing [tid:0]
  79000: system.cpu.iew: [tid:0], Dispatch dispatched 0 instructions.
  79000: system.cpu.iew: IQ has 64 free entries (Can schedule: 0).  LQ has 32 free entries. SQ has 32 free entries.
  79500: system.cpu.iew: Issue: Processing [tid:0]
  79500: system.cpu.iew: [tid:0] Not blocked, so attempting to run dispatch.
  79500: system.cpu.iew: Processing [tid:0]
  79500: system.cpu.iew: [tid:0], Dispatch dispatched 0 instructions.
  79500: system.cpu.iew: IQ has 64 free entries (Can schedule: 0).  LQ has 32 free entries. SQ has 32 free entries.
  80000: system.cpu.iew: Issue: Processing [tid:0]
  80000: system.cpu.iew: [tid:0] Not blocked, so attempting to run dispatch.
  80000: system.cpu.iew: Processing [tid:0]
  80000: system.cpu.iew: [tid:0], Dispatch dispatched 0 instructions.
  80000: system.cpu.iew: IQ has 64 free entries (Can schedule: 0).  LQ has 32 free entries. SQ has 32 free entries.
  80500: system.cpu.iew: Issue: Processing [tid:0]
  80500: system.cpu.iew: [tid:0] Not blocked, so attempting to run dispatch.
  80500: system.cpu.iew: [tid:0]: Issue: Adding PC (0x8150=>0x8154).(0=>1) [sn:1] [tid:0] to IQ.
  80500: system.cpu.iew: [tid:0]: Issue: Memory instruction encountered, adding to LSQ.
  80500: system.cpu.iew: [tid:0]: Issue: Adding PC (0x8154=>0x8158).(0=>1) [sn:2] [tid:0] to IQ.
  80500: system.cpu.iew: [tid:0]: Issue: Adding PC (0x8158=>0x815c).(0=>1) [sn:3] [tid:0] to IQ.
  80500: system.cpu.iew: [tid:0]: Issue: Memory instruction encountered, adding to LSQ.
  80500: system.cpu.iew: [tid:0]: Issue: Adding PC (0x8158=>0x815c).(1=>2) [sn:4] [tid:0] to IQ.
  80500: system.cpu.iew: [tid:0]: Issue: Adding PC (0x815c=>0x8160).(0=>1) [sn:5] [tid:0] to IQ.
  80500: system.cpu.iew: [tid:0]: Issue: Adding PC (0x8160=>0x8164).(0=>1) [sn:6] [tid:0] to IQ.
  80500: system.cpu.iew: [tid:0]: Issue: Memory instruction encountered, adding to LSQ.
  80500: system.cpu.iew: [tid:0]: Issue: Adding PC (0x8160=>0x8164).(1=>2) [sn:7] [tid:0] to IQ.
  80500: system.cpu.iew: [tid:0]: Issue: Adding PC (0x8164=>0x8168).(0=>1) [sn:8] [tid:0] to IQ.
  80500: system.cpu.iew: [tid:0]: Issue: Memory instruction encountered, adding to LSQ.
  80500: system.cpu.iew: Processing [tid:0]
  80500: system.cpu.iew: [tid:0], Dispatch dispatched 8 instructions.
  80500: system.cpu.iew: IQ has 58 free entries (Can schedule: 0).  LQ has 30 free entries. SQ has 30 free entries.
  81000: system.cpu.iew: Issue: Processing [tid:0]
  81000: system.cpu.iew: [tid:0] Not blocked, so attempting to run dispatch.
  81000: system.cpu.iew: [tid:0]: Issue: Adding PC (0x8164=>0x8168).(1=>2) [sn:9] [tid:0] to IQ.
  81000: system.cpu.iew: [tid:0]: Issue: Adding PC (0x8168=>0x816c).(0=>1) [sn:10] [tid:0] to IQ.
  81000: system.cpu.iew: [tid:0]: Issue: Memory instruction encountered, adding to LSQ.
  81000: system.cpu.iew: [tid:0]: Issue: Adding PC (0x816c=>0x8170).(0=>1) [sn:11] [tid:0] to IQ.
  81000: system.cpu.iew: [tid:0]: Issue: Memory instruction encountered, adding to LSQ.
  81000: system.cpu.iew: [tid:0]: Issue: Adding PC (0x8170=>0x8174).(0=>1) [sn:12] [tid:0] to IQ.
  81000: system.cpu.iew: [tid:0]: Issue: Memory instruction encountered, adding to LSQ.
  81000: system.cpu.iew: [tid:0]: Issue: Adding PC (0x8170=>0x8174).(1=>2) [sn:13] [tid:0] to IQ.
  81000: system.cpu.iew: [tid:0]: Issue: Adding PC (0x8174=>0x8178).(0=>1) [sn:14] [tid:0] to IQ.
  81000: system.cpu.iew: Execute: Executing instructions from IQ.
  81000: system.cpu.iew: Execute: Processing PC (0x8150=>0x8154).(0=>1), [tid:0] [sn:1].
  81000: system.cpu.iew: Execute: Calculating address for memory reference.
  81000: global: RegFile: Access to cc register 5, has data 0
  81000: global: RegFile: Access to cc register 5, has data 0
  81000: global: RegFile: Access to cc register 5, has data 0
  81000: system.cpu.iew: Execute: Executing instructions from IQ.
  81000: system.cpu.iew: Execute: Processing PC (0x8154=>0x8158).(0=>1), [tid:0] [sn:2].
  81000: global: RegFile: Access to cc register 5, has data 0
  81000: global: RegFile: Access to cc register 5, has data 0
  81000: global: RegFile: Access to cc register 5, has data 0
setIntRegOperandT0 : 00033108 `  mov   fp, #0'
  81000: global: RegFile: Setting int register 44 to 0
  81000: system.cpu.iew: Current wb cycle: 0, width: 8, numInst: 0
wbActual:0
  81000: system.cpu.iew: Execute: Executing instructions from IQ.
  81000: system.cpu.iew: Execute: Processing PC (0x8158=>0x815c).(0=>1), [tid:0] [sn:3].
  81000: system.cpu.iew: Execute: Calculating address for memory reference.
  81000: global: RegFile: Access to int register 13, has data 0xbefffee0
  81000: global: RegFile: Access to cc register 5, has data 0
  81000: global: RegFile: Access to cc register 5, has data 0
  81000: global: RegFile: Access to cc register 5, has data 0
  81000: system.cpu.iew: Execute: Executing instructions from IQ.
  81000: system.cpu.iew: Execute: Processing PC (0x8158=>0x815c).(1=>2), [tid:0] [sn:4].
  81000: global: RegFile: Access to cc register 5, has data 0
  81000: global: RegFile: Access to cc register 5, has data 0
  81000: global: RegFile: Access to cc register 5, has data 0
  81000: global: RegFile: Access to int register 13, has data 0xbefffee0
setIntRegOperandT0 : 00033112 `  addi_uop   sp, sp, #4'
  81000: global: RegFile: Setting int register 46 to 0xbefffee4
  81000: system.cpu.iew: Current wb cycle: 0, width: 8, numInst: 1
wbActual:1
  81000: system.cpu.iew: Sending instructions to commit, [sn:2] PC (0x8154=>0x8158).(0=>1).
  81000: system.cpu.iew: Setting Destination Register 44 (IntRegClass)
  81000: system.cpu.iew: Sending instructions to commit, [sn:4] PC (0x8158=>0x815c).(1=>2).
  81000: system.cpu.iew: Setting Destination Register 46 (IntRegClass)
  81000: system.cpu.iew: Processing [tid:0]
  81000: system.cpu.iew: [tid:0], Dispatch dispatched 6 instructions.
  81000: system.cpu.iew: IQ has 55 free entries (Can schedule: 0).  LQ has 28 free entries. SQ has 29 free entries.
  81500: system.cpu.iew: Issue: Processing [tid:0]
  81500: system.cpu.iew: [tid:0] Not blocked, so attempting to run dispatch.
  81500: system.cpu.iew: Execute: Executing instructions from IQ.
  81500: system.cpu.iew: Execute: Processing PC (0x815c=>0x8160).(0=>1), [tid:0] [sn:5].
  81500: global: RegFile: Access to cc register 5, has data 0
  81500: global: RegFile: Access to cc register 1, has data 0
  81500: global: RegFile: Access to cc register 5, has data 0
  81500: global: RegFile: Access to int register 46, has data 0xbefffee4
setIntRegOperandT0 : 00033116 `  mov   r2, sp'
  81500: global: RegFile: Setting int register 47 to 0xbefffee4
  81500: system.cpu.iew: Current wb cycle: 0, width: 8, numInst: 0
wbActual:0
  81500: system.cpu.iew: Execute: Executing instructions from IQ.
  81500: system.cpu.iew: Execute: Processing PC (0x8160=>0x8164).(1=>2), [tid:0] [sn:7].
  81500: global: RegFile: Access to cc register 5, has data 0
  81500: global: RegFile: Access to cc register 5, has data 0
  81500: global: RegFile: Access to cc register 5, has data 0
  81500: global: RegFile: Access to int register 46, has data 0xbefffee4
setIntRegOperandT0 : 00033120 `  subi_uop   sp, sp, #4'
  81500: global: RegFile: Setting int register 48 to 0xbefffee0
  81500: system.cpu.iew: Current wb cycle: 0, width: 8, numInst: 1
wbActual:1
  81500: system.cpu.iew: Execute: Executing instructions from IQ.
  81500: system.cpu.iew: Execute: Processing PC (0x8168=>0x816c).(0=>1), [tid:0] [sn:10].
  81500: system.cpu.iew: Execute: Calculating address for memory reference.
  81500: global: RegFile: Access to cc register 5, has data 0
  81500: global: RegFile: Access to cc register 5, has data 0
  81500: global: RegFile: Access to cc register 5, has data 0
  81500: system.cpu.iew: Execute: Executing instructions from IQ.
  81500: system.cpu.iew: Execute: Processing PC (0x816c=>0x8170).(0=>1), [tid:0] [sn:11].
  81500: system.cpu.iew: Execute: Calculating address for memory reference.
  81500: global: RegFile: Access to cc register 5, has data 0
  81500: global: RegFile: Access to cc register 5, has data 0
  81500: global: RegFile: Access to cc register 5, has data 0
  81500: system.cpu.iew: Execute: Executing instructions from IQ.
  81500: system.cpu.iew: Execute: Processing PC (0x8174=>0x8178).(0=>1), [tid:0] [sn:14].
  81500: global: RegFile: Access to cc register 5, has data 0
  81500: global: RegFile: Access to cc register 5, has data 0
  81500: global: RegFile: Access to cc register 5, has data 0
setIntRegOperandT0 : 00033140 `  bl   0x8264'
  81500: global: RegFile: Setting int register 53 to 0x8178
  81500: system.cpu.iew: Current wb cycle: 0, width: 8, numInst: 2
wbActual:2
  81500: system.cpu.iew: Sending instructions to commit, [sn:5] PC (0x815c=>0x8160).(0=>1).
  81500: system.cpu.iew: Setting Destination Register 47 (IntRegClass)
  81500: system.cpu.iew: Sending instructions to commit, [sn:7] PC (0x8160=>0x8164).(1=>2).
  81500: system.cpu.iew: Setting Destination Register 48 (IntRegClass)
  81500: system.cpu.iew: Sending instructions to commit, [sn:14] PC (0x8174=>0x826c).(0=>1).
  81500: system.cpu.iew: Setting Destination Register 53 (IntRegClass)
  81500: system.cpu.iew: Processing [tid:0]
  81500: system.cpu.iew: [tid:0], Dispatch dispatched 0 instructions.
  81500: system.cpu.iew: IQ has 56 free entries (Can schedule: 0).  LQ has 28 free entries. SQ has 29 free entries.
  82000: system.cpu.iew: Issue: Processing [tid:0]
  82000: system.cpu.iew: [tid:0] Not blocked, so attempting to run dispatch.
  82000: system.cpu.iew: Execute: Executing instructions from IQ.
  82000: system.cpu.iew: Execute: Processing PC (0x8160=>0x8164).(0=>1), [tid:0] [sn:6].
  82000: system.cpu.iew: Execute: Calculating address for memory reference.
  82000: global: RegFile: Access to int register 46, has data 0xbefffee4
  82000: global: RegFile: Access to cc register 5, has data 0
  82000: global: RegFile: Access to cc register 5, has data 0
  82000: global: RegFile: Access to cc register 5, has data 0
  82000: global: RegFile: Access to int register 47, has data 0xbefffee4
  82000: system.cpu.iew: Current wb cycle: 0, width: 8, numInst: 0
wbActual:0
  82000: system.cpu.iew: Execute: Executing instructions from IQ.
  82000: system.cpu.iew: Execute: Processing PC (0x8164=>0x8168).(0=>1), [tid:0] [sn:8].
  82000: system.cpu.iew: Execute: Calculating address for memory reference.
  82000: global: RegFile: Access to int register 48, has data 0xbefffee0
  82000: global: RegFile: Access to cc register 5, has data 0
  82000: global: RegFile: Access to cc register 5, has data 0
  82000: global: RegFile: Access to cc register 5, has data 0
  82000: global: RegFile: Access to int register 0, has data 0
  82000: system.cpu.iew: Current wb cycle: 0, width: 8, numInst: 1
wbActual:1
  82000: system.cpu.iew: Execute: Executing instructions from IQ.
  82000: system.cpu.iew: Execute: Processing PC (0x8164=>0x8168).(1=>2), [tid:0] [sn:9].
  82000: global: RegFile: Access to cc register 5, has data 0
  82000: global: RegFile: Access to cc register 5, has data 0
  82000: global: RegFile: Access to cc register 5, has data 0
  82000: global: RegFile: Access to int register 48, has data 0xbefffee0
setIntRegOperandT0 : 00033124 `  subi_uop   sp, sp, #4'
  82000: global: RegFile: Setting int register 49 to 0xbefffedc
  82000: system.cpu.iew: Current wb cycle: 0, width: 8, numInst: 2
wbActual:2
  82000: system.cpu.iew: Sending instructions to commit, [sn:6] PC (0x8160=>0x8164).(0=>1).
  82000: system.cpu.iew: Sending instructions to commit, [sn:8] PC (0x8164=>0x8168).(0=>1).
  82000: system.cpu.iew: Sending instructions to commit, [sn:9] PC (0x8164=>0x8168).(1=>2).
  82000: system.cpu.iew: Setting Destination Register 49 (IntRegClass)
  82000: system.cpu.iew: Processing [tid:0]
  82000: system.cpu.iew: [tid:0], Dispatch dispatched 0 instructions.
  82000: system.cpu.iew: IQ has 59 free entries (Can schedule: 0).  LQ has 28 free entries. SQ has 29 free entries.
  82500: system.cpu.iew: Issue: Processing [tid:0]
  82500: system.cpu.iew: [tid:0] Not blocked, so attempting to run dispatch.
  82500: system.cpu.iew: Execute: Executing instructions from IQ.
  82500: system.cpu.iew: Execute: Processing PC (0x8170=>0x8174).(1=>2), [tid:0] [sn:13].
  82500: global: RegFile: Access to cc register 5, has data 0
  82500: global: RegFile: Access to cc register 5, has data 0
  82500: global: RegFile: Access to cc register 5, has data 0
  82500: global: RegFile: Access to int register 49, has data 0xbefffedc
setIntRegOperandT0 : 00033136 `  subi_uop   sp, sp, #4'
  82500: global: RegFile: Setting int register 52 to 0xbefffed8
  82500: system.cpu.iew: Current wb cycle: 0, width: 8, numInst: 0
wbActual:0
  82500: system.cpu.iew: Sending instructions to commit, [sn:13] PC (0x8170=>0x8174).(1=>2).
  82500: system.cpu.iew: Setting Destination Register 52 (IntRegClass)
  82500: system.cpu.iew: Processing [tid:0]
  82500: system.cpu.iew: [tid:0], Dispatch dispatched 0 instructions.
  82500: system.cpu.iew: IQ has 59 free entries (Can schedule: 0).  LQ has 28 free entries. SQ has 29 free entries.
  83000: system.cpu.iew: Issue: Processing [tid:0]
  83000: system.cpu.iew: [tid:0] Not blocked, so attempting to run dispatch.
  83000: system.cpu.iew: Processing [tid:0]
  83000: system.cpu.iew: [tid:0], Dispatch dispatched 0 instructions.
  83000: system.cpu.iew: IQ has 59 free entries (Can schedule: 0).  LQ has 28 free entries. SQ has 29 free entries.
  83500: system.cpu.iew: Issue: Processing [tid:0]
  83500: system.cpu.iew: [tid:0] Not blocked, so attempting to run dispatch.
  83500: system.cpu.iew: Processing [tid:0]
  83500: system.cpu.iew: [tid:0], Dispatch dispatched 0 instructions.
  83500: system.cpu.iew: IQ has 59 free entries (Can schedule: 0).  LQ has 28 free entries. SQ has 29 free entries.
  84000: system.cpu.iew: Issue: Processing [tid:0]
  84000: system.cpu.iew: [tid:0] Not blocked, so attempting to run dispatch.
  84000: system.cpu.iew: Processing [tid:0]
  84000: system.cpu.iew: [tid:0], Dispatch dispatched 0 instructions.
  84000: system.cpu.iew: IQ has 59 free entries (Can schedule: 0).  LQ has 28 free entries. SQ has 29 free entries.
  84500: system.cpu.iew: Issue: Processing [tid:0]
  84500: system.cpu.iew: [tid:0] Not blocked, so attempting to run dispatch.
  84500: system.cpu.iew: Processing [tid:0]
  84500: system.cpu.iew: [tid:0], Dispatch dispatched 0 instructions.
  84500: system.cpu.iew: IQ has 59 free entries (Can schedule: 0).  LQ has 28 free entries. SQ has 29 free entries.
  85000: system.cpu.iew: Issue: Processing [tid:0]
  85000: system.cpu.iew: [tid:0] Not blocked, so attempting to run dispatch.
  85000: system.cpu.iew: Processing [tid:0]
  85000: system.cpu.iew: [tid:0], Dispatch dispatched 0 instructions.
  85000: system.cpu.iew: IQ has 59 free entries (Can schedule: 0).  LQ has 28 free entries. SQ has 29 free entries.
  85500: system.cpu.iew: Issue: Processing [tid:0]
  85500: system.cpu.iew: [tid:0] Not blocked, so attempting to run dispatch.
  85500: system.cpu.iew: Processing [tid:0]
  85500: system.cpu.iew: [tid:0], Dispatch dispatched 0 instructions.
  85500: system.cpu.iew: IQ has 59 free entries (Can schedule: 0).  LQ has 28 free entries. SQ has 29 free entries.
  86000: system.cpu.iew: Issue: Processing [tid:0]
  86000: system.cpu.iew: [tid:0] Not blocked, so attempting to run dispatch.
  86000: system.cpu.iew: Processing [tid:0]
  86000: system.cpu.iew: [tid:0], Dispatch dispatched 0 instructions.
  86000: system.cpu.iew: IQ has 59 free entries (Can schedule: 0).  LQ has 28 free entries. SQ has 29 free entries.
  86500: system.cpu.iew: Issue: Processing [tid:0]
  86500: system.cpu.iew: [tid:0] Not blocked, so attempting to run dispatch.
  86500: system.cpu.iew: Processing [tid:0]
  86500: system.cpu.iew: [tid:0], Dispatch dispatched 0 instructions.
  86500: system.cpu.iew: IQ has 59 free entries (Can schedule: 0).  LQ has 28 free entries. SQ has 29 free entries.
  87000: system.cpu.iew: Issue: Processing [tid:0]
  87000: system.cpu.iew: [tid:0] Not blocked, so attempting to run dispatch.
  87000: system.cpu.iew: Processing [tid:0]
  87000: system.cpu.iew: [tid:0], Dispatch dispatched 0 instructions.
  87000: system.cpu.iew: IQ has 59 free entries (Can schedule: 0).  LQ has 28 free entries. SQ has 29 free entries.
  87500: system.cpu.iew: Issue: Processing [tid:0]
  87500: system.cpu.iew: [tid:0] Not blocked, so attempting to run dispatch.
  87500: system.cpu.iew: Processing [tid:0]
  87500: system.cpu.iew: [tid:0], Dispatch dispatched 0 instructions.
  87500: system.cpu.iew: IQ has 59 free entries (Can schedule: 0).  LQ has 28 free entries. SQ has 29 free entries.
 142000: system.cpu.iew: Issue: Processing [tid:0]
 142000: system.cpu.iew: [tid:0] Not blocked, so attempting to run dispatch.
 142000: system.cpu.iew: Processing [tid:0]
 142000: system.cpu.iew: [tid:0], Dispatch dispatched 0 instructions.
 142000: system.cpu.iew: IQ has 59 free entries (Can schedule: 0).  LQ has 28 free entries. SQ has 29 free entries.
 142500: system.cpu.iew: Issue: Processing [tid:0]
 142500: system.cpu.iew: [tid:0] Not blocked, so attempting to run dispatch.
 142500: system.cpu.iew: Processing [tid:0]
 142500: system.cpu.iew: [tid:0], Dispatch dispatched 0 instructions.
 142500: system.cpu.iew: IQ has 59 free entries (Can schedule: 0).  LQ has 28 free entries. SQ has 29 free entries.
 143000: system.cpu.iew: Issue: Processing [tid:0]
 143000: system.cpu.iew: [tid:0] Not blocked, so attempting to run dispatch.
 143000: system.cpu.iew: Processing [tid:0]
 143000: system.cpu.iew: [tid:0], Dispatch dispatched 0 instructions.
 143000: system.cpu.iew: IQ has 59 free entries (Can schedule: 0).  LQ has 28 free entries. SQ has 29 free entries.
 143500: system.cpu.iew: Issue: Processing [tid:0]
 143500: system.cpu.iew: [tid:0] Not blocked, so attempting to run dispatch.
 143500: system.cpu.iew: Processing [tid:0]
 143500: system.cpu.iew: [tid:0], Dispatch dispatched 0 instructions.
 143500: system.cpu.iew: IQ has 59 free entries (Can schedule: 0).  LQ has 28 free entries. SQ has 29 free entries.
 144000: system.cpu.iew: Issue: Processing [tid:0]
 144000: system.cpu.iew: [tid:0] Not blocked, so attempting to run dispatch.
 144000: system.cpu.iew: [tid:0]: Issue: Adding PC (0x826c=>0x8270).(0=>1) [sn:17] [tid:0] to IQ.
 144000: system.cpu.iew: [tid:0]: Issue: Memory instruction encountered, adding to LSQ.
 144000: system.cpu.iew: [tid:0]: Issue: Adding PC (0x8270=>0x8274).(0=>1) [sn:18] [tid:0] to IQ.
 144000: system.cpu.iew: [tid:0]: Issue: Memory instruction encountered, adding to LSQ.
 144000: system.cpu.iew: [tid:0]: Issue: Adding PC (0x8270=>0x8274).(1=>2) [sn:19] [tid:0] to IQ.
 144000: system.cpu.iew: [tid:0]: Issue: Memory instruction encountered, adding to LSQ.
 144000: system.cpu.iew: [tid:0]: Issue: Adding PC (0x8270=>0x8274).(2=>3) [sn:20] [tid:0] to IQ.
 144000: system.cpu.iew: [tid:0]: Issue: Memory instruction encountered, adding to LSQ.
 144000: system.cpu.iew: [tid:0]: Issue: Adding PC (0x8270=>0x8274).(3=>4) [sn:21] [tid:0] to IQ.
 144000: system.cpu.iew: [tid:0]: Issue: Memory instruction encountered, adding to LSQ.
 144000: system.cpu.iew: [tid:0]: Issue: Adding PC (0x8270=>0x8274).(4=>5) [sn:22] [tid:0] to IQ.
 144000: system.cpu.iew: [tid:0]: Issue: Memory instruction encountered, adding to LSQ.
 144000: system.cpu.iew: [tid:0]: Issue: Adding PC (0x8270=>0x8274).(5=>6) [sn:23] [tid:0] to IQ.
 144000: system.cpu.iew: [tid:0]: Issue: Memory instruction encountered, adding to LSQ.
 144000: system.cpu.iew: [tid:0]: Issue: Adding PC (0x8270=>0x8274).(6=>7) [sn:24] [tid:0] to IQ.
 144000: system.cpu.iew: Processing [tid:0]
 144000: system.cpu.iew: [tid:0], Dispatch dispatched 8 instructions.
 144000: system.cpu.iew: IQ has 52 free entries (Can schedule: 1).  LQ has 27 free entries. SQ has 23 free entries.
 144000: system.cpu.iew: IEW switching to active
 144500: system.cpu.iew: Issue: Processing [tid:0]
 144500: system.cpu.iew: [tid:0] Not blocked, so attempting to run dispatch.
 144500: system.cpu.iew: [tid:0]: Issue: Adding PC (0x8274=>0x8278).(0=>1) [sn:25] [tid:0] to IQ.
 144500: system.cpu.iew: [tid:0]: Issue: Adding PC (0x8278=>0x827c).(0=>1) [sn:26] [tid:0] to IQ.
 144500: system.cpu.iew: [tid:0]: Issue: Adding PC (0x827c=>0x8280).(0=>1) [sn:27] [tid:0] to IQ.
 144500: system.cpu.iew: Execute: Executing instructions from IQ.
 144500: system.cpu.iew: Execute: Processing PC (0x826c=>0x8270).(0=>1), [tid:0] [sn:17].
 144500: system.cpu.iew: Execute: Calculating address for memory reference.
 144500: global: RegFile: Access to cc register 5, has data 0
 144500: global: RegFile: Access to cc register 5, has data 0
 144500: global: RegFile: Access to cc register 5, has data 0
 144500: system.cpu.iew: Execute: Executing instructions from IQ.
 144500: system.cpu.iew: Execute: Processing PC (0x8270=>0x8274).(0=>1), [tid:0] [sn:18].
 144500: system.cpu.iew: Execute: Calculating address for memory reference.
 144500: global: RegFile: Access to cc register 5, has data 0
 144500: global: RegFile: Access to cc register 5, has data 0
 144500: global: RegFile: Access to cc register 5, has data 0
 144500: global: RegFile: Access to int register 52, has data 0xbefffed8
 144500: global: RegFile: Access to int register 4, has data 0
 144500: system.cpu.iew: Current wb cycle: 0, width: 8, numInst: 0
wbActual:0
 144500: system.cpu.iew: Execute: Executing instructions from IQ.
 144500: system.cpu.iew: Execute: Processing PC (0x8270=>0x8274).(1=>2), [tid:0] [sn:19].
 144500: system.cpu.iew: Execute: Calculating address for memory reference.
 144500: global: RegFile: Access to cc register 5, has data 0
 144500: global: RegFile: Access to cc register 5, has data 0
 144500: global: RegFile: Access to cc register 5, has data 0
 144500: global: RegFile: Access to int register 52, has data 0xbefffed8
 144500: global: RegFile: Access to int register 5, has data 0
 144500: system.cpu.iew: Current wb cycle: 0, width: 8, numInst: 1
wbActual:1
 144500: system.cpu.iew: Execute: Executing instructions from IQ.
 144500: system.cpu.iew: Execute: Processing PC (0x8270=>0x8274).(2=>3), [tid:0] [sn:20].
 144500: system.cpu.iew: Execute: Calculating address for memory reference.
 144500: global: RegFile: Access to cc register 5, has data 0
 144500: global: RegFile: Access to cc register 5, has data 0
 144500: global: RegFile: Access to cc register 5, has data 0
 144500: global: RegFile: Access to int register 52, has data 0xbefffed8
 144500: global: RegFile: Access to int register 6, has data 0
 144500: system.cpu.iew: Current wb cycle: 0, width: 8, numInst: 2
wbActual:2
 144500: system.cpu.iew: Execute: Executing instructions from IQ.
 144500: system.cpu.iew: Execute: Processing PC (0x8270=>0x8274).(6=>7), [tid:0] [sn:24].
 144500: global: RegFile: Access to cc register 5, has data 0
 144500: global: RegFile: Access to cc register 5, has data 0
 144500: global: RegFile: Access to cc register 5, has data 0
 144500: global: RegFile: Access to int register 52, has data 0xbefffed8
setIntRegOperandT0 : 00033392 `  subi_uop   sp, sp, #24'
 144500: global: RegFile: Setting int register 55 to 0xbefffec0
 144500: system.cpu.iew: Current wb cycle: 0, width: 8, numInst: 3
wbActual:3
 144500: system.cpu.iew: Sending instructions to commit, [sn:18] PC (0x8270=>0x8274).(0=>1).
 144500: system.cpu.iew: Sending instructions to commit, [sn:19] PC (0x8270=>0x8274).(1=>2).
 144500: system.cpu.iew: Sending instructions to commit, [sn:20] PC (0x8270=>0x8274).(2=>3).
 144500: system.cpu.iew: Sending instructions to commit, [sn:24] PC (0x8270=>0x8274).(6=>7).
 144500: system.cpu.iew: Setting Destination Register 55 (IntRegClass)
 144500: system.cpu.iew: Processing [tid:0]
 144500: system.cpu.iew: [tid:0], Dispatch dispatched 3 instructions.
 144500: system.cpu.iew: IQ has 53 free entries (Can schedule: 0).  LQ has 27 free entries. SQ has 23 free entries.
 144500: system.cpu.iew: IEW switching to idle
 145000: system.cpu.iew: Issue: Processing [tid:0]
 145000: system.cpu.iew: [tid:0] Not blocked, so attempting to run dispatch.
 145000: system.cpu.iew: Execute: Executing instructions from IQ.
 145000: system.cpu.iew: Execute: Processing PC (0x8270=>0x8274).(3=>4), [tid:0] [sn:21].
 145000: system.cpu.iew: Execute: Calculating address for memory reference.
 145000: global: RegFile: Access to cc register 5, has data 0
 145000: global: RegFile: Access to cc register 5, has data 0
 145000: global: RegFile: Access to cc register 5, has data 0
 145000: global: RegFile: Access to int register 52, has data 0xbefffed8
 145000: global: RegFile: Access to int register 7, has data 0
 145000: system.cpu.iew: Current wb cycle: 0, width: 8, numInst: 0
wbActual:0
 145000: system.cpu.iew: Execute: Executing instructions from IQ.
 145000: system.cpu.iew: Execute: Processing PC (0x8270=>0x8274).(4=>5), [tid:0] [sn:22].
 145000: system.cpu.iew: Execute: Calculating address for memory reference.
 145000: global: RegFile: Access to cc register 5, has data 0
 145000: global: RegFile: Access to cc register 5, has data 0
 145000: global: RegFile: Access to cc register 5, has data 0
 145000: global: RegFile: Access to int register 52, has data 0xbefffed8
 145000: global: RegFile: Access to int register 8, has data 0
 145000: system.cpu.iew: Current wb cycle: 0, width: 8, numInst: 1
wbActual:1
 145000: system.cpu.iew: Execute: Executing instructions from IQ.
 145000: system.cpu.iew: Execute: Processing PC (0x8270=>0x8274).(5=>6), [tid:0] [sn:23].
 145000: system.cpu.iew: Execute: Calculating address for memory reference.
 145000: global: RegFile: Access to cc register 5, has data 0
 145000: global: RegFile: Access to cc register 5, has data 0
 145000: global: RegFile: Access to cc register 5, has data 0
 145000: global: RegFile: Access to int register 52, has data 0xbefffed8
 145000: global: RegFile: Access to int register 53, has data 0x8178
 145000: system.cpu.iew: Current wb cycle: 0, width: 8, numInst: 2
wbActual:2
 145000: system.cpu.iew: Execute: Executing instructions from IQ.
 145000: system.cpu.iew: Execute: Processing PC (0x8278=>0x827c).(0=>1), [tid:0] [sn:26].
 145000: global: RegFile: Access to cc register 5, has data 0
 145000: global: RegFile: Access to cc register 5, has data 0
 145000: global: RegFile: Access to cc register 5, has data 0
 145000: global: RegFile: Access to int register 55, has data 0xbefffec0
setIntRegOperandT0 : 00033400 `  sub   sp, sp, #304'
 145000: global: RegFile: Setting int register 56 to 0xbefffd90
 145000: system.cpu.iew: Current wb cycle: 0, width: 8, numInst: 3
wbActual:3
 145000: system.cpu.iew: Sending instructions to commit, [sn:21] PC (0x8270=>0x8274).(3=>4).
 145000: system.cpu.iew: Sending instructions to commit, [sn:22] PC (0x8270=>0x8274).(4=>5).
 145000: system.cpu.iew: Sending instructions to commit, [sn:23] PC (0x8270=>0x8274).(5=>6).
 145000: system.cpu.iew: Sending instructions to commit, [sn:26] PC (0x8278=>0x827c).(0=>1).
 145000: system.cpu.iew: Setting Destination Register 56 (IntRegClass)
 145000: system.cpu.iew: Processing [tid:0]
 145000: system.cpu.iew: [tid:0], Dispatch dispatched 0 instructions.
 145000: system.cpu.iew: IQ has 56 free entries (Can schedule: 0).  LQ has 27 free entries. SQ has 23 free entries.
 145500: system.cpu.iew: Issue: Processing [tid:0]
 145500: system.cpu.iew: [tid:0] Not blocked, so attempting to run dispatch.
 145500: system.cpu.iew: Processing [tid:0]
 145500: system.cpu.iew: [tid:0], Dispatch dispatched 0 instructions.
 145500: system.cpu.iew: IQ has 56 free entries (Can schedule: 0).  LQ has 27 free entries. SQ has 23 free entries.
 146000: system.cpu.iew: Issue: Processing [tid:0]
 146000: system.cpu.iew: [tid:0] Not blocked, so attempting to run dispatch.
 146000: system.cpu.iew: Processing [tid:0]
 146000: system.cpu.iew: [tid:0], Dispatch dispatched 0 instructions.
 146000: system.cpu.iew: IQ has 56 free entries (Can schedule: 0).  LQ has 27 free entries. SQ has 23 free entries.
 146500: system.cpu.iew: Issue: Processing [tid:0]
 146500: system.cpu.iew: [tid:0] Not blocked, so attempting to run dispatch.
 146500: system.cpu.iew: Processing [tid:0]
 146500: system.cpu.iew: [tid:0], Dispatch dispatched 0 instructions.
 146500: system.cpu.iew: IQ has 56 free entries (Can schedule: 0).  LQ has 27 free entries. SQ has 23 free entries.
 147000: system.cpu.iew.lsq.thread0: Writeback event [sn:1].
 147000: global: RegFile: Access to cc register 5, has data 0
 147000: global: RegFile: Access to cc register 5, has data 0
 147000: global: RegFile: Access to cc register 5, has data 0
setIntRegOperandT0 : 00033104 `  ldr   r12, [pc, #36]'
 147000: global: RegFile: Setting int register 43 to 0x8960
 147000: system.cpu.iew: Current wb cycle: 0, width: 8, numInst: 0
wbActual:0
 147000: system.cpu.iew: Issue: Processing [tid:0]
 147000: system.cpu.iew: [tid:0] Not blocked, so attempting to run dispatch.
 147000: system.cpu.iew: Sending instructions to commit, [sn:1] PC (0x8150=>0x8154).(0=>1).
 147000: system.cpu.iew: Setting Destination Register 43 (IntRegClass)
 147000: system.cpu.iew: Processing [tid:0]
 147000: system.cpu.iew: [tid:0], Dispatch dispatched 0 instructions.
 147000: system.cpu.iew: IQ has 57 free entries (Can schedule: 0).  LQ has 27 free entries. SQ has 23 free entries.
 147500: system.cpu.iew: Issue: Processing [tid:0]
 147500: system.cpu.iew: [tid:0] Not blocked, so attempting to run dispatch.
 147500: system.cpu.iew: Execute: Executing instructions from IQ.
 147500: system.cpu.iew: Execute: Processing PC (0x8170=>0x8174).(0=>1), [tid:0] [sn:12].
 147500: system.cpu.iew: Execute: Calculating address for memory reference.
 147500: global: RegFile: Access to int register 49, has data 0xbefffedc
 147500: global: RegFile: Access to cc register 5, has data 0
 147500: global: RegFile: Access to cc register 5, has data 0
 147500: global: RegFile: Access to cc register 5, has data 0
 147500: global: RegFile: Access to int register 43, has data 0x8960
 147500: system.cpu.iew: Current wb cycle: 0, width: 8, numInst: 0
wbActual:0
 147500: system.cpu.iew: Sending instructions to commit, [sn:12] PC (0x8170=>0x8174).(0=>1).
 147500: system.cpu.iew: Processing [tid:0]
 147500: system.cpu.iew: [tid:0], Dispatch dispatched 0 instructions.
 147500: system.cpu.iew: IQ has 58 free entries (Can schedule: 0).  LQ has 27 free entries. SQ has 23 free entries.
 148000: system.cpu.iew: Issue: Processing [tid:0]
 148000: system.cpu.iew: [tid:0] Not blocked, so attempting to run dispatch.
 148000: system.cpu.iew: Processing [tid:0]
 148000: system.cpu.iew: [tid:0], Dispatch dispatched 0 instructions.
 148000: system.cpu.iew: IQ has 58 free entries (Can schedule: 0).  LQ has 27 free entries. SQ has 23 free entries.
 148000: global: RegFile: Access to cc register 5, has data 0
 148000: global: RegFile: Access to cc register 5, has data 0
 148000: global: RegFile: Access to cc register 5, has data 0
 148500: system.cpu.iew: Issue: Processing [tid:0]
 148500: system.cpu.iew: [tid:0] Not blocked, so attempting to run dispatch.
 148500: system.cpu.iew: Processing [tid:0]
 148500: system.cpu.iew: [tid:0], Dispatch dispatched 0 instructions.
 148500: system.cpu.iew: IQ has 58 free entries (Can schedule: 0).  LQ has 27 free entries. SQ has 23 free entries.
 149000: system.cpu.iew: Issue: Processing [tid:0]
 149000: system.cpu.iew: [tid:0] Not blocked, so attempting to run dispatch.
 149000: system.cpu.iew: Processing [tid:0]
 149000: system.cpu.iew: [tid:0], Dispatch dispatched 0 instructions.
 149000: system.cpu.iew: IQ has 58 free entries (Can schedule: 0).  LQ has 27 free entries. SQ has 23 free entries.
 149500: system.cpu.iew: Issue: Processing [tid:0]
 149500: system.cpu.iew: [tid:0] Not blocked, so attempting to run dispatch.
 149500: system.cpu.iew: Processing [tid:0]
 149500: system.cpu.iew: [tid:0], Dispatch dispatched 0 instructions.
 149500: system.cpu.iew: IQ has 58 free entries (Can schedule: 0).  LQ has 27 free entries. SQ has 23 free entries.
 150000: system.cpu.iew: Issue: Processing [tid:0]
 150000: system.cpu.iew: [tid:0] Not blocked, so attempting to run dispatch.
 150000: system.cpu.iew: Processing [tid:0]
 150000: system.cpu.iew: [tid:0], Dispatch dispatched 0 instructions.
 150000: system.cpu.iew: IQ has 58 free entries (Can schedule: 0).  LQ has 27 free entries. SQ has 23 free entries.
 150500: system.cpu.iew: Issue: Processing [tid:0]
 150500: system.cpu.iew: [tid:0] Not blocked, so attempting to run dispatch.
 150500: system.cpu.iew: Processing [tid:0]
 150500: system.cpu.iew: [tid:0], Dispatch dispatched 0 instructions.
 150500: system.cpu.iew: IQ has 58 free entries (Can schedule: 0).  LQ has 27 free entries. SQ has 23 free entries.
 151000: system.cpu.iew: Issue: Processing [tid:0]
 151000: system.cpu.iew: [tid:0] Not blocked, so attempting to run dispatch.
 151000: system.cpu.iew: Processing [tid:0]
 151000: system.cpu.iew: [tid:0], Dispatch dispatched 0 instructions.
 151000: system.cpu.iew: IQ has 58 free entries (Can schedule: 0).  LQ has 27 free entries. SQ has 23 free entries.
 151500: system.cpu.iew: Issue: Processing [tid:0]
 151500: system.cpu.iew: [tid:0] Not blocked, so attempting to run dispatch.
 151500: system.cpu.iew: Processing [tid:0]
 151500: system.cpu.iew: [tid:0], Dispatch dispatched 0 instructions.
 151500: system.cpu.iew: IQ has 58 free entries (Can schedule: 0).  LQ has 27 free entries. SQ has 23 free entries.
 152000: system.cpu.iew.lsq.thread0: Writeback event [sn:1].
 152000: global: RegFile: Access to cc register 5, has data 0
 152000: global: RegFile: Access to cc register 5, has data 0
 152000: global: RegFile: Access to cc register 5, has data 0
setIntRegOperandT0 : 00033104 `  ldr   r12, [pc, #36]'
 152000: system.cpu.iew: Issue: Processing [tid:0]
 152000: system.cpu.iew: [tid:0] Not blocked, so attempting to run dispatch.
 152000: system.cpu.iew: Processing [tid:0]
 152000: system.cpu.iew: [tid:0], Dispatch dispatched 0 instructions.
 152000: system.cpu.iew: IQ has 58 free entries (Can schedule: 0).  LQ has 27 free entries. SQ has 23 free entries.
T0 : 00033104 `  ldr   r12, [pc, #36]'
T0 : 00033108 `  mov   fp, #0'
 152500: system.cpu.iew: Issue: Processing [tid:0]
 152500: system.cpu.iew: [tid:0] Not blocked, so attempting to run dispatch.
 152500: system.cpu.iew: Processing [tid:0]
 152500: system.cpu.iew: [tid:0], Dispatch dispatched 0 instructions.
 152500: system.cpu.iew: IQ has 58 free entries (Can schedule: 0).  LQ has 28 free entries. SQ has 23 free entries.
 153000: system.cpu.iew: Issue: Processing [tid:0]
 153000: system.cpu.iew: [tid:0] Not blocked, so attempting to run dispatch.
 153000: system.cpu.iew: Processing [tid:0]
 153000: system.cpu.iew: [tid:0], Dispatch dispatched 0 instructions.
 153000: system.cpu.iew: IQ has 58 free entries (Can schedule: 0).  LQ has 28 free entries. SQ has 23 free entries.
 153500: system.cpu.iew: Issue: Processing [tid:0]
 153500: system.cpu.iew: [tid:0] Not blocked, so attempting to run dispatch.
 153500: system.cpu.iew: Processing [tid:0]
 153500: system.cpu.iew: [tid:0], Dispatch dispatched 0 instructions.
 153500: system.cpu.iew: IQ has 58 free entries (Can schedule: 0).  LQ has 28 free entries. SQ has 23 free entries.
 154000: system.cpu.iew.lsq.thread0: Writeback event [sn:3].
 154000: global: RegFile: Access to cc register 5, has data 0
 154000: global: RegFile: Access to cc register 5, has data 0
 154000: global: RegFile: Access to cc register 5, has data 0
setIntRegOperandT0 : 00033112 `  ldr   r1, [sp] #4'
 154000: global: RegFile: Setting int register 45 to 0x1
 154000: system.cpu.iew: Current wb cycle: 0, width: 8, numInst: 0
wbActual:0
 154000: system.cpu.iew: Issue: Processing [tid:0]
 154000: system.cpu.iew: [tid:0] Not blocked, so attempting to run dispatch.
 154000: system.cpu.iew: Sending instructions to commit, [sn:3] PC (0x8158=>0x815c).(0=>1).
 154000: system.cpu.iew: Setting Destination Register 45 (IntRegClass)
 154000: system.cpu.iew: Processing [tid:0]
 154000: system.cpu.iew: [tid:0], Dispatch dispatched 0 instructions.
 154000: system.cpu.iew: IQ has 59 free entries (Can schedule: 0).  LQ has 28 free entries. SQ has 23 free entries.
 154500: system.cpu.iew: Issue: Processing [tid:0]
 154500: system.cpu.iew: [tid:0] Not blocked, so attempting to run dispatch.
 154500: system.cpu.iew: Processing [tid:0]
 154500: system.cpu.iew: [tid:0], Dispatch dispatched 0 instructions.
 154500: system.cpu.iew: IQ has 59 free entries (Can schedule: 0).  LQ has 28 free entries. SQ has 23 free entries.
 155000: system.cpu.iew: Issue: Processing [tid:0]
 155000: system.cpu.iew: [tid:0] Not blocked, so attempting to run dispatch.
 155000: system.cpu.iew: Processing [tid:0]
 155000: system.cpu.iew: [tid:0], Dispatch dispatched 0 instructions.
 155000: system.cpu.iew: IQ has 59 free entries (Can schedule: 0).  LQ has 28 free entries. SQ has 23 free entries.
T0 : 00033112 `  ldr   r1, [sp] #4'
T0 : 00033112 `  addi_uop   sp, sp, #4'
T0 : 00033116 `  mov   r2, sp'
T0 : 00033120 `  str   r2, [sp, #-4]!'
T0 : 00033120 `  subi_uop   sp, sp, #4'
T0 : 00033124 `  str   r0, [sp, #-4]!'
T0 : 00033124 `  subi_uop   sp, sp, #4'
 155500: system.cpu.iew: Issue: Processing [tid:0]
 155500: system.cpu.iew: [tid:0] Not blocked, so attempting to run dispatch.
 155500: system.cpu.iew: Processing [tid:0]
 155500: system.cpu.iew: [tid:0], Dispatch dispatched 0 instructions.
 155500: system.cpu.iew: IQ has 59 free entries (Can schedule: 0).  LQ has 29 free entries. SQ has 23 free entries.
 155500: system.cpu.iew: IEW switching to active
 156000: system.cpu.iew: Issue: Processing [tid:0]
 156000: system.cpu.iew: [tid:0] Not blocked, so attempting to run dispatch.
 156000: system.cpu.iew: Processing [tid:0]
 156000: system.cpu.iew: [tid:0], Dispatch dispatched 0 instructions.
 156000: system.cpu.iew: IQ has 59 free entries (Can schedule: 0).  LQ has 29 free entries. SQ has 23 free entries.
 156000: system.cpu.iew: IEW switching to idle
 156500: system.cpu.iew: Issue: Processing [tid:0]
 156500: system.cpu.iew: [tid:0] Not blocked, so attempting to run dispatch.
 156500: system.cpu.iew: Processing [tid:0]
 156500: system.cpu.iew: [tid:0], Dispatch dispatched 0 instructions.
 156500: system.cpu.iew: IQ has 59 free entries (Can schedule: 0).  LQ has 29 free entries. SQ has 23 free entries.
 157000: system.cpu.iew: Issue: Processing [tid:0]
 157000: system.cpu.iew: [tid:0] Not blocked, so attempting to run dispatch.
 157000: system.cpu.iew: Processing [tid:0]
 157000: system.cpu.iew: [tid:0], Dispatch dispatched 0 instructions.
 157000: system.cpu.iew: IQ has 59 free entries (Can schedule: 0).  LQ has 29 free entries. SQ has 23 free entries.
 157500: system.cpu.iew: Issue: Processing [tid:0]
 157500: system.cpu.iew: [tid:0] Not blocked, so attempting to run dispatch.
 157500: system.cpu.iew: Processing [tid:0]
 157500: system.cpu.iew: [tid:0], Dispatch dispatched 0 instructions.
 157500: system.cpu.iew: IQ has 59 free entries (Can schedule: 0).  LQ has 29 free entries. SQ has 23 free entries.
 158000: system.cpu.iew: Issue: Processing [tid:0]
 158000: system.cpu.iew: [tid:0] Not blocked, so attempting to run dispatch.
 158000: system.cpu.iew: Processing [tid:0]
 158000: system.cpu.iew: [tid:0], Dispatch dispatched 0 instructions.
 158000: system.cpu.iew: IQ has 59 free entries (Can schedule: 0).  LQ has 29 free entries. SQ has 23 free entries.
 158500: system.cpu.iew: Issue: Processing [tid:0]
 158500: system.cpu.iew: [tid:0] Not blocked, so attempting to run dispatch.
 158500: system.cpu.iew: Processing [tid:0]
 158500: system.cpu.iew: [tid:0], Dispatch dispatched 0 instructions.
 158500: system.cpu.iew: IQ has 59 free entries (Can schedule: 0).  LQ has 29 free entries. SQ has 23 free entries.
 159000: system.cpu.iew.lsq.thread0: Writeback event [sn:6].
 159000: system.cpu.iew: Issue: Processing [tid:0]
 159000: system.cpu.iew: [tid:0] Not blocked, so attempting to run dispatch.
 159000: system.cpu.iew: Processing [tid:0]
 159000: system.cpu.iew: [tid:0], Dispatch dispatched 0 instructions.
 159000: system.cpu.iew: IQ has 59 free entries (Can schedule: 0).  LQ has 29 free entries. SQ has 24 free entries.
 159001: system.cpu.iew.lsq.thread0: Writeback event [sn:8].
 159500: system.cpu.iew: Issue: Processing [tid:0]
 159500: system.cpu.iew: [tid:0] Not blocked, so attempting to run dispatch.
 159500: system.cpu.iew: Processing [tid:0]
 159500: system.cpu.iew: [tid:0], Dispatch dispatched 0 instructions.
 159500: system.cpu.iew: IQ has 59 free entries (Can schedule: 0).  LQ has 29 free entries. SQ has 25 free entries.
 160000: system.cpu.iew: Issue: Processing [tid:0]
 160000: system.cpu.iew: [tid:0] Not blocked, so attempting to run dispatch.
 160000: system.cpu.iew: Processing [tid:0]
 160000: system.cpu.iew: [tid:0], Dispatch dispatched 0 instructions.
 160000: system.cpu.iew: IQ has 59 free entries (Can schedule: 0).  LQ has 29 free entries. SQ has 25 free entries.
 160500: system.cpu.iew: Issue: Processing [tid:0]
 160500: system.cpu.iew: [tid:0] Not blocked, so attempting to run dispatch.
 160500: system.cpu.iew: Processing [tid:0]
 160500: system.cpu.iew: [tid:0], Dispatch dispatched 0 instructions.
 160500: system.cpu.iew: IQ has 59 free entries (Can schedule: 0).  LQ has 29 free entries. SQ has 25 free entries.
 161000: system.cpu.iew: Issue: Processing [tid:0]
 161000: system.cpu.iew: [tid:0] Not blocked, so attempting to run dispatch.
 161000: system.cpu.iew: Processing [tid:0]
 161000: system.cpu.iew: [tid:0], Dispatch dispatched 0 instructions.
 161000: system.cpu.iew: IQ has 59 free entries (Can schedule: 0).  LQ has 29 free entries. SQ has 25 free entries.
 161500: system.cpu.iew: Issue: Processing [tid:0]
 161500: system.cpu.iew: [tid:0] Not blocked, so attempting to run dispatch.
 161500: system.cpu.iew: Processing [tid:0]
 161500: system.cpu.iew: [tid:0], Dispatch dispatched 0 instructions.
 161500: system.cpu.iew: IQ has 59 free entries (Can schedule: 0).  LQ has 29 free entries. SQ has 25 free entries.
 162000: system.cpu.iew.lsq.thread0: Writeback event [sn:10].
 162000: global: RegFile: Access to cc register 5, has data 0
 162000: global: RegFile: Access to cc register 5, has data 0
 162000: global: RegFile: Access to cc register 5, has data 0
setIntRegOperandT0 : 00033128 `  ldr   r0, [pc, #16]'
 162000: global: RegFile: Setting int register 50 to 0x8248
 162000: system.cpu.iew: Current wb cycle: 0, width: 8, numInst: 0
wbActual:0
 162000: system.cpu.iew: Issue: Processing [tid:0]
 162000: system.cpu.iew: [tid:0] Not blocked, so attempting to run dispatch.
 162000: system.cpu.iew: Sending instructions to commit, [sn:10] PC (0x8168=>0x816c).(0=>1).
 162000: system.cpu.iew: Setting Destination Register 50 (IntRegClass)
 162000: system.cpu.iew: Processing [tid:0]
 162000: system.cpu.iew: [tid:0], Dispatch dispatched 0 instructions.
 162000: system.cpu.iew: IQ has 60 free entries (Can schedule: 0).  LQ has 29 free entries. SQ has 25 free entries.
 162500: system.cpu.iew: Issue: Processing [tid:0]
 162500: system.cpu.iew: [tid:0] Not blocked, so attempting to run dispatch.
 162500: system.cpu.iew: Processing [tid:0]
 162500: system.cpu.iew: [tid:0], Dispatch dispatched 0 instructions.
 162500: system.cpu.iew: IQ has 60 free entries (Can schedule: 0).  LQ has 29 free entries. SQ has 25 free entries.
 163000: system.cpu.iew: Issue: Processing [tid:0]
 163000: system.cpu.iew: [tid:0] Not blocked, so attempting to run dispatch.
 163000: system.cpu.iew: Processing [tid:0]
 163000: system.cpu.iew: [tid:0], Dispatch dispatched 0 instructions.
 163000: system.cpu.iew: IQ has 60 free entries (Can schedule: 0).  LQ has 29 free entries. SQ has 25 free entries.
 163000: global: RegFile: Access to cc register 5, has data 0
 163000: global: RegFile: Access to cc register 5, has data 0
 163000: global: RegFile: Access to cc register 5, has data 0
 163500: system.cpu.iew: Issue: Processing [tid:0]
 163500: system.cpu.iew: [tid:0] Not blocked, so attempting to run dispatch.
 163500: system.cpu.iew: Processing [tid:0]
 163500: system.cpu.iew: [tid:0], Dispatch dispatched 0 instructions.
 163500: system.cpu.iew: IQ has 60 free entries (Can schedule: 0).  LQ has 29 free entries. SQ has 25 free entries.
 164000: system.cpu.iew: Issue: Processing [tid:0]
 164000: system.cpu.iew: [tid:0] Not blocked, so attempting to run dispatch.
 164000: system.cpu.iew: Processing [tid:0]
 164000: system.cpu.iew: [tid:0], Dispatch dispatched 0 instructions.
 164000: system.cpu.iew: IQ has 60 free entries (Can schedule: 0).  LQ has 29 free entries. SQ has 25 free entries.
 164500: system.cpu.iew: Issue: Processing [tid:0]
 164500: system.cpu.iew: [tid:0] Not blocked, so attempting to run dispatch.
 164500: system.cpu.iew: Processing [tid:0]
 164500: system.cpu.iew: [tid:0], Dispatch dispatched 0 instructions.
 164500: system.cpu.iew: IQ has 60 free entries (Can schedule: 0).  LQ has 29 free entries. SQ has 25 free entries.
 165000: system.cpu.iew: Issue: Processing [tid:0]
 165000: system.cpu.iew: [tid:0] Not blocked, so attempting to run dispatch.
 165000: system.cpu.iew: Processing [tid:0]
 165000: system.cpu.iew: [tid:0], Dispatch dispatched 0 instructions.
 165000: system.cpu.iew: IQ has 60 free entries (Can schedule: 0).  LQ has 29 free entries. SQ has 25 free entries.
 165500: system.cpu.iew: Issue: Processing [tid:0]
 165500: system.cpu.iew: [tid:0] Not blocked, so attempting to run dispatch.
 165500: system.cpu.iew: Processing [tid:0]
 165500: system.cpu.iew: [tid:0], Dispatch dispatched 0 instructions.
 165500: system.cpu.iew: IQ has 60 free entries (Can schedule: 0).  LQ has 29 free entries. SQ has 25 free entries.
 166000: system.cpu.iew.lsq.thread0: Writeback event [sn:11].
 166000: global: RegFile: Access to cc register 5, has data 0
 166000: global: RegFile: Access to cc register 5, has data 0
 166000: global: RegFile: Access to cc register 5, has data 0
setIntRegOperandT0 : 00033132 `  ldr   r3, [pc, #16]'
 166000: global: RegFile: Setting int register 51 to 0x89a8
 166000: system.cpu.iew: Current wb cycle: 0, width: 8, numInst: 0
wbActual:0
 166000: system.cpu.iew: Issue: Processing [tid:0]
 166000: system.cpu.iew: [tid:0] Not blocked, so attempting to run dispatch.
 166000: system.cpu.iew: Sending instructions to commit, [sn:11] PC (0x816c=>0x8170).(0=>1).
 166000: system.cpu.iew: Setting Destination Register 51 (IntRegClass)
 166000: system.cpu.iew: Processing [tid:0]
 166000: system.cpu.iew: [tid:0], Dispatch dispatched 0 instructions.
 166000: system.cpu.iew: IQ has 61 free entries (Can schedule: 0).  LQ has 29 free entries. SQ has 25 free entries.
 166500: system.cpu.iew: Issue: Processing [tid:0]
 166500: system.cpu.iew: [tid:0] Not blocked, so attempting to run dispatch.
 166500: system.cpu.iew: Processing [tid:0]
 166500: system.cpu.iew: [tid:0], Dispatch dispatched 0 instructions.
 166500: system.cpu.iew: IQ has 61 free entries (Can schedule: 0).  LQ has 29 free entries. SQ has 25 free entries.
 167000: system.cpu.iew.lsq.thread0: Writeback event [sn:10].
 167000: global: RegFile: Access to cc register 5, has data 0
 167000: global: RegFile: Access to cc register 5, has data 0
 167000: global: RegFile: Access to cc register 5, has data 0
setIntRegOperandT0 : 00033128 `  ldr   r0, [pc, #16]'
 167000: system.cpu.iew: Issue: Processing [tid:0]
 167000: system.cpu.iew: [tid:0] Not blocked, so attempting to run dispatch.
 167000: system.cpu.iew: Processing [tid:0]
 167000: system.cpu.iew: [tid:0], Dispatch dispatched 0 instructions.
 167000: system.cpu.iew: IQ has 61 free entries (Can schedule: 0).  LQ has 29 free entries. SQ has 25 free entries.
 167000: global: RegFile: Access to cc register 5, has data 0
 167000: global: RegFile: Access to cc register 5, has data 0
 167000: global: RegFile: Access to cc register 5, has data 0
T0 : 00033128 `  ldr   r0, [pc, #16]'
 167500: system.cpu.iew: Issue: Processing [tid:0]
 167500: system.cpu.iew: [tid:0] Not blocked, so attempting to run dispatch.
 167500: system.cpu.iew: Processing [tid:0]
 167500: system.cpu.iew: [tid:0], Dispatch dispatched 0 instructions.
 167500: system.cpu.iew: IQ has 61 free entries (Can schedule: 0).  LQ has 30 free entries. SQ has 25 free entries.
 168000: system.cpu.iew.lsq.thread0: Writeback event [sn:11].
 168000: global: RegFile: Access to cc register 5, has data 0
 168000: global: RegFile: Access to cc register 5, has data 0
 168000: global: RegFile: Access to cc register 5, has data 0
setIntRegOperandT0 : 00033132 `  ldr   r3, [pc, #16]'
 168000: system.cpu.iew: Issue: Processing [tid:0]
 168000: system.cpu.iew: [tid:0] Not blocked, so attempting to run dispatch.
 168000: system.cpu.iew: Processing [tid:0]
 168000: system.cpu.iew: [tid:0], Dispatch dispatched 0 instructions.
 168000: system.cpu.iew: IQ has 61 free entries (Can schedule: 0).  LQ has 30 free entries. SQ has 25 free entries.
T0 : 00033132 `  ldr   r3, [pc, #16]'
T0 : 00033136 `  str   r12, [sp, #-4]!'
T0 : 00033136 `  subi_uop   sp, sp, #4'
T0 : 00033140 `  bl   0x8264'
 168500: system.cpu.iew: Issue: Processing [tid:0]
 168500: system.cpu.iew: [tid:0] Not blocked, so attempting to run dispatch.
 168500: system.cpu.iew: Processing [tid:0]
 168500: system.cpu.iew: [tid:0], Dispatch dispatched 0 instructions.
 168500: system.cpu.iew: IQ has 61 free entries (Can schedule: 0).  LQ has 31 free entries. SQ has 25 free entries.
 168500: system.cpu.iew: IEW switching to active
 169000: system.cpu.iew: Issue: Processing [tid:0]
 169000: system.cpu.iew: [tid:0] Not blocked, so attempting to run dispatch.
 169000: system.cpu.iew: Processing [tid:0]
 169000: system.cpu.iew: [tid:0], Dispatch dispatched 0 instructions.
 169000: system.cpu.iew: IQ has 61 free entries (Can schedule: 0).  LQ has 31 free entries. SQ has 25 free entries.
 169000: system.cpu.iew: IEW switching to idle
 169500: system.cpu.iew: Issue: Processing [tid:0]
 169500: system.cpu.iew: [tid:0] Not blocked, so attempting to run dispatch.
 169500: system.cpu.iew: Processing [tid:0]
 169500: system.cpu.iew: [tid:0], Dispatch dispatched 0 instructions.
 169500: system.cpu.iew: IQ has 61 free entries (Can schedule: 0).  LQ has 31 free entries. SQ has 25 free entries.
 170000: system.cpu.iew.lsq.thread0: Writeback event [sn:12].
 170000: system.cpu.iew: Issue: Processing [tid:0]
 170000: system.cpu.iew: [tid:0] Not blocked, so attempting to run dispatch.
 170000: system.cpu.iew: Processing [tid:0]
 170000: system.cpu.iew: [tid:0], Dispatch dispatched 0 instructions.
 170000: system.cpu.iew: IQ has 61 free entries (Can schedule: 0).  LQ has 31 free entries. SQ has 26 free entries.
 170500: system.cpu.iew: Issue: Processing [tid:0]
 170500: system.cpu.iew: [tid:0] Not blocked, so attempting to run dispatch.
 170500: system.cpu.iew: Processing [tid:0]
 170500: system.cpu.iew: [tid:0], Dispatch dispatched 0 instructions.
 170500: system.cpu.iew: IQ has 61 free entries (Can schedule: 0).  LQ has 31 free entries. SQ has 26 free entries.
 171000: system.cpu.iew: Issue: Processing [tid:0]
 171000: system.cpu.iew: [tid:0] Not blocked, so attempting to run dispatch.
 171000: system.cpu.iew: Processing [tid:0]
 171000: system.cpu.iew: [tid:0], Dispatch dispatched 0 instructions.
 171000: system.cpu.iew: IQ has 61 free entries (Can schedule: 0).  LQ has 31 free entries. SQ has 26 free entries.
 171500: system.cpu.iew: Issue: Processing [tid:0]
 171500: system.cpu.iew: [tid:0] Not blocked, so attempting to run dispatch.
 171500: system.cpu.iew: Processing [tid:0]
 171500: system.cpu.iew: [tid:0], Dispatch dispatched 0 instructions.
 171500: system.cpu.iew: IQ has 61 free entries (Can schedule: 0).  LQ has 31 free entries. SQ has 26 free entries.
 172000: system.cpu.iew: Issue: Processing [tid:0]
 172000: system.cpu.iew: [tid:0] Not blocked, so attempting to run dispatch.
 172000: system.cpu.iew: Processing [tid:0]
 172000: system.cpu.iew: [tid:0], Dispatch dispatched 0 instructions.
 172000: system.cpu.iew: IQ has 61 free entries (Can schedule: 0).  LQ has 31 free entries. SQ has 26 free entries.
 172500: system.cpu.iew: Issue: Processing [tid:0]
 172500: system.cpu.iew: [tid:0] Not blocked, so attempting to run dispatch.
 172500: system.cpu.iew: Processing [tid:0]
 172500: system.cpu.iew: [tid:0], Dispatch dispatched 0 instructions.
 172500: system.cpu.iew: IQ has 61 free entries (Can schedule: 0).  LQ has 31 free entries. SQ has 26 free entries.
 173000: system.cpu.iew: Issue: Processing [tid:0]
 173000: system.cpu.iew: [tid:0] Not blocked, so attempting to run dispatch.
 173000: system.cpu.iew: Processing [tid:0]
 173000: system.cpu.iew: [tid:0], Dispatch dispatched 0 instructions.
 173000: system.cpu.iew: IQ has 61 free entries (Can schedule: 0).  LQ has 31 free entries. SQ has 26 free entries.
 173500: system.cpu.iew: Issue: Processing [tid:0]
 173500: system.cpu.iew: [tid:0] Not blocked, so attempting to run dispatch.
 173500: system.cpu.iew: Processing [tid:0]
 173500: system.cpu.iew: [tid:0], Dispatch dispatched 0 instructions.
 173500: system.cpu.iew: IQ has 61 free entries (Can schedule: 0).  LQ has 31 free entries. SQ has 26 free entries.
 174000: system.cpu.iew: Issue: Processing [tid:0]
 174000: system.cpu.iew: [tid:0] Not blocked, so attempting to run dispatch.
 174000: system.cpu.iew: Processing [tid:0]
 174000: system.cpu.iew: [tid:0], Dispatch dispatched 0 instructions.
 174000: system.cpu.iew: IQ has 61 free entries (Can schedule: 0).  LQ has 31 free entries. SQ has 26 free entries.
 174500: system.cpu.iew: Issue: Processing [tid:0]
 174500: system.cpu.iew: [tid:0] Not blocked, so attempting to run dispatch.
 174500: system.cpu.iew: Processing [tid:0]
 174500: system.cpu.iew: [tid:0], Dispatch dispatched 0 instructions.
 174500: system.cpu.iew: IQ has 61 free entries (Can schedule: 0).  LQ has 31 free entries. SQ has 26 free entries.
 175000: system.cpu.iew: Issue: Processing [tid:0]
 175000: system.cpu.iew: [tid:0] Not blocked, so attempting to run dispatch.
 175000: system.cpu.iew: Processing [tid:0]
 175000: system.cpu.iew: [tid:0], Dispatch dispatched 0 instructions.
 175000: system.cpu.iew: IQ has 61 free entries (Can schedule: 0).  LQ has 31 free entries. SQ has 26 free entries.
 200000: system.cpu.iew: Issue: Processing [tid:0]
 200000: system.cpu.iew: [tid:0] Not blocked, so attempting to run dispatch.
 200000: system.cpu.iew: Processing [tid:0]
 200000: system.cpu.iew: [tid:0], Dispatch dispatched 0 instructions.
 200000: system.cpu.iew: IQ has 61 free entries (Can schedule: 0).  LQ has 31 free entries. SQ has 26 free entries.
 200500: system.cpu.iew: Issue: Processing [tid:0]
 200500: system.cpu.iew: [tid:0] Not blocked, so attempting to run dispatch.
 200500: system.cpu.iew: Processing [tid:0]
 200500: system.cpu.iew: [tid:0], Dispatch dispatched 0 instructions.
 200500: system.cpu.iew: IQ has 61 free entries (Can schedule: 0).  LQ has 31 free entries. SQ has 26 free entries.
 201000: system.cpu.iew: Issue: Processing [tid:0]
 201000: system.cpu.iew: [tid:0] Not blocked, so attempting to run dispatch.
 201000: system.cpu.iew: Processing [tid:0]
 201000: system.cpu.iew: [tid:0], Dispatch dispatched 0 instructions.
 201000: system.cpu.iew: IQ has 61 free entries (Can schedule: 0).  LQ has 31 free entries. SQ has 26 free entries.
 201500: system.cpu.iew: Issue: Processing [tid:0]
 201500: system.cpu.iew: [tid:0] Not blocked, so attempting to run dispatch.
 201500: system.cpu.iew: Processing [tid:0]
 201500: system.cpu.iew: [tid:0], Dispatch dispatched 0 instructions.
 201500: system.cpu.iew: IQ has 61 free entries (Can schedule: 0).  LQ has 31 free entries. SQ has 26 free entries.
 202000: system.cpu.iew: Issue: Processing [tid:0]
 202000: system.cpu.iew: [tid:0] Not blocked, so attempting to run dispatch.
 202000: system.cpu.iew: [tid:0]: Issue: Adding PC (0x8280=>0x8284).(0=>1) [sn:28] [tid:0] to IQ.
 202000: system.cpu.iew: [tid:0]: Issue: Memory instruction encountered, adding to LSQ.
 202000: system.cpu.iew: [tid:0]: Issue: Adding PC (0x8284=>0x8288).(0=>1) [sn:29] [tid:0] to IQ.
 202000: system.cpu.iew: [tid:0]: Issue: Memory instruction encountered, adding to LSQ.
 202000: system.cpu.iew: [tid:0]: Issue: Adding PC (0x8288=>0x828c).(0=>1) [sn:30] [tid:0] to IQ.
 202000: system.cpu.iew: [tid:0]: Issue: Memory instruction encountered, adding to LSQ.
 202000: system.cpu.iew: [tid:0]: Issue: Adding PC (0x828c=>0x8290).(0=>1) [sn:31] [tid:0] to IQ.
 202000: system.cpu.iew: [tid:0]: Issue: Memory instruction encountered, adding to LSQ.
 202000: system.cpu.iew: [tid:0]: Issue: Adding PC (0x8290=>0x8294).(0=>1) [sn:32] [tid:0] to IQ.
 202000: system.cpu.iew: [tid:0]: Issue: Memory instruction encountered, adding to LSQ.
 202000: system.cpu.iew: [tid:0]: Issue: Adding PC (0x8294=>0x8298).(0=>1) [sn:33] [tid:0] to IQ.
 202000: system.cpu.iew: [tid:0]: Issue: Adding PC (0x8298=>0x829c).(0=>1) [sn:34] [tid:0] to IQ.
 202000: system.cpu.iew: [tid:0]: Issue: Adding PC (0x829c=>0x82a0).(0=>1) [sn:35] [tid:0] to IQ.
 202000: system.cpu.iew: [tid:0]: Issue: Memory instruction encountered, adding to LSQ.
 202000: system.cpu.iew: Processing [tid:0]
 202000: system.cpu.iew: [tid:0], Dispatch dispatched 8 instructions.
 202000: system.cpu.iew: IQ has 53 free entries (Can schedule: 1).  LQ has 28 free entries. SQ has 23 free entries.
 202000: system.cpu.iew: IEW switching to active
 202500: system.cpu.iew: Issue: Processing [tid:0]
 202500: system.cpu.iew: [tid:0] Not blocked, so attempting to run dispatch.
 202500: system.cpu.iew: [tid:0]: Issue: Adding PC (0x82a0=>0x82a4).(0=>1) [sn:36] [tid:0] to IQ.
 202500: system.cpu.iew: [tid:0]: Issue: Memory instruction encountered, adding to LSQ.
 202500: system.cpu.iew: [tid:0]: Issue: Adding PC (0x82a4=>0x82a8).(0=>1) [sn:37] [tid:0] to IQ.
 202500: system.cpu.iew: [tid:0]: Issue: Adding PC (0x82a8=>0x82ac).(0=>1) [sn:38] [tid:0] to IQ.
 202500: system.cpu.iew: [tid:0]: Issue: Memory instruction encountered, adding to LSQ.
 202500: system.cpu.iew: [tid:0]: Issue: Adding PC (0x82ac=>0x82b0).(0=>1) [sn:39] [tid:0] to IQ.
 202500: system.cpu.iew: [tid:0]: Issue: Adding PC (0x82b0=>0x82b4).(0=>1) [sn:40] [tid:0] to IQ.
 202500: system.cpu.iew: [tid:0]: Issue: Adding PC (0x82b4=>0x82b8).(0=>1) [sn:41] [tid:0] to IQ.
 202500: system.cpu.iew: [tid:0]: Issue: Memory instruction encountered, adding to LSQ.
 202500: system.cpu.iew: [tid:0]: Issue: Adding PC (0x82b8=>0x82bc).(0=>1) [sn:42] [tid:0] to IQ.
 202500: system.cpu.iew: [tid:0]: Issue: Adding PC (0x82bc=>0x82c0).(0=>1) [sn:43] [tid:0] to IQ.
 202500: system.cpu.iew: [tid:0]: Issue: Memory instruction encountered, adding to LSQ.
 202500: system.cpu.iew: Execute: Executing instructions from IQ.
 202500: system.cpu.iew: Execute: Processing PC (0x8280=>0x8284).(0=>1), [tid:0] [sn:28].
 202500: system.cpu.iew: Execute: Calculating address for memory reference.
 202500: global: RegFile: Access to int register 56, has data 0xbefffd90
 202500: global: RegFile: Access to cc register 5, has data 0
 202500: global: RegFile: Access to cc register 5, has data 0
 202500: global: RegFile: Access to cc register 5, has data 0
 202500: global: RegFile: Access to int register 47, has data 0xbefffee4
writeMem:writeMem1
0
writeMem:writeMem2
0
writeMem:writeMem3
0
 202500: system.cpu.iew: Current wb cycle: 0, width: 8, numInst: 0
wbActual:0
 202500: system.cpu.iew: Execute: Executing instructions from IQ.
 202500: system.cpu.iew: Execute: Processing PC (0x8284=>0x8288).(0=>1), [tid:0] [sn:29].
 202500: system.cpu.iew: Execute: Calculating address for memory reference.
 202500: global: RegFile: Access to int register 56, has data 0xbefffd90
 202500: global: RegFile: Access to cc register 5, has data 0
 202500: global: RegFile: Access to cc register 5, has data 0
 202500: global: RegFile: Access to cc register 5, has data 0
 202500: global: RegFile: Access to int register 50, has data 0x8248
 202500: system.cpu.iew: Current wb cycle: 0, width: 8, numInst: 1
wbActual:1
 202500: system.cpu.iew: Execute: Executing instructions from IQ.
 202500: system.cpu.iew: Execute: Processing PC (0x8288=>0x828c).(0=>1), [tid:0] [sn:30].
 202500: system.cpu.iew: Execute: Calculating address for memory reference.
 202500: global: RegFile: Access to int register 56, has data 0xbefffd90
 202500: global: RegFile: Access to cc register 5, has data 0
 202500: global: RegFile: Access to cc register 5, has data 0
 202500: global: RegFile: Access to cc register 5, has data 0
 202500: global: RegFile: Access to int register 45, has data 0x1
 202500: system.cpu.iew: Current wb cycle: 0, width: 8, numInst: 2
wbActual:2
 202500: system.cpu.iew: Execute: Executing instructions from IQ.
 202500: system.cpu.iew: Execute: Processing PC (0x828c=>0x8290).(0=>1), [tid:0] [sn:31].
 202500: system.cpu.iew: Execute: Calculating address for memory reference.
 202500: global: RegFile: Access to int register 56, has data 0xbefffd90
 202500: global: RegFile: Access to cc register 5, has data 0
 202500: global: RegFile: Access to cc register 5, has data 0
 202500: global: RegFile: Access to cc register 5, has data 0
 202500: system.cpu.iew: Sending instructions to commit, [sn:28] PC (0x8280=>0x8284).(0=>1).
 202500: system.cpu.iew: Sending instructions to commit, [sn:29] PC (0x8284=>0x8288).(0=>1).
 202500: system.cpu.iew: Sending instructions to commit, [sn:30] PC (0x8288=>0x828c).(0=>1).
 202500: system.cpu.iew: Processing [tid:0]
 202500: system.cpu.iew: [tid:0], Dispatch dispatched 8 instructions.
 202500: system.cpu.iew: IQ has 48 free entries (Can schedule: 1).  LQ has 25 free entries. SQ has 22 free entries.
 203000: system.cpu.iew: Issue: Processing [tid:0]
 203000: system.cpu.iew: [tid:0] Not blocked, so attempting to run dispatch.
 203000: system.cpu.iew: Execute: Executing instructions from IQ.
 203000: system.cpu.iew: Execute: Processing PC (0x8290=>0x8294).(0=>1), [tid:0] [sn:32].
 203000: system.cpu.iew: Execute: Calculating address for memory reference.
 203000: global: RegFile: Access to int register 56, has data 0xbefffd90
 203000: global: RegFile: Access to cc register 5, has data 0
 203000: global: RegFile: Access to cc register 5, has data 0
 203000: global: RegFile: Access to cc register 5, has data 0
 203000: system.cpu.iew: Execute: Executing instructions from IQ.
 203000: system.cpu.iew: Execute: Processing PC (0x829c=>0x82a0).(0=>1), [tid:0] [sn:35].
 203000: system.cpu.iew: Execute: Calculating address for memory reference.
 203000: global: RegFile: Access to int register 56, has data 0xbefffd90
 203000: global: RegFile: Access to cc register 5, has data 0
 203000: global: RegFile: Access to cc register 5, has data 0
 203000: global: RegFile: Access to cc register 5, has data 0
 203000: system.cpu.iew: Execute: Executing instructions from IQ.
 203000: system.cpu.iew: Execute: Processing PC (0x82a0=>0x82a4).(0=>1), [tid:0] [sn:36].
 203000: system.cpu.iew: Execute: Calculating address for memory reference.
 203000: global: RegFile: Access to cc register 5, has data 0
 203000: global: RegFile: Access to cc register 5, has data 0
 203000: global: RegFile: Access to cc register 5, has data 0
 203000: system.cpu.iew: Execute: Executing instructions from IQ.
 203000: system.cpu.iew: Execute: Processing PC (0x82a8=>0x82ac).(0=>1), [tid:0] [sn:38].
 203000: system.cpu.iew: Execute: Calculating address for memory reference.
 203000: global: RegFile: Access to int register 56, has data 0xbefffd90
 203000: global: RegFile: Access to cc register 5, has data 0
 203000: global: RegFile: Access to cc register 5, has data 0
 203000: global: RegFile: Access to cc register 5, has data 0
 203000: system.cpu.iew: Processing [tid:0]
 203000: system.cpu.iew: [tid:0], Dispatch dispatched 0 instructions.
 203000: system.cpu.iew: IQ has 48 free entries (Can schedule: 0).  LQ has 25 free entries. SQ has 22 free entries.
 203000: system.cpu.iew: IEW switching to idle
 203000: global: RegFile: Access to cc register 5, has data 0
 203000: global: RegFile: Access to cc register 5, has data 0
 203000: global: RegFile: Access to cc register 5, has data 0
setIntRegOperandT0 : 00033448 `  ldr   r3, [sp, #4]'
 203000: global: RegFile: Setting int register 64 to 0xbefffee4
 203000: system.cpu.iew: Current wb cycle: 0, width: 8, numInst: 0
wbActual:0
 203000: global: RegFile: Access to cc register 5, has data 0
 203000: global: RegFile: Access to cc register 5, has data 0
 203000: global: RegFile: Access to cc register 5, has data 0
setIntRegOperandT0 : 00033436 `  ldr   r3, [sp, #8]'
 203000: global: RegFile: Setting int register 61 to 0x1
 203000: system.cpu.iew: Current wb cycle: 0, width: 8, numInst: 1
wbActual:1
 203500: system.cpu.iew.lsq.thread0: Writeback event [sn:31].
 203500: global: RegFile: Access to cc register 5, has data 0
 203500: global: RegFile: Access to cc register 5, has data 0
 203500: global: RegFile: Access to cc register 5, has data 0
setIntRegOperandT0 : 00033420 `  ldr   r8, [sp, #328]'
 203500: global: RegFile: Setting int register 58 to 0x8960
 203500: system.cpu.iew: Current wb cycle: 0, width: 8, numInst: 2
wbActual:2
 203500: system.cpu.iew: Issue: Processing [tid:0]
 203500: system.cpu.iew: [tid:0] Not blocked, so attempting to run dispatch.
 203500: system.cpu.iew: Execute: Executing instructions from IQ.
 203500: system.cpu.iew: Execute: Processing PC (0x82b4=>0x82b8).(0=>1), [tid:0] [sn:41].
 203500: system.cpu.iew: Execute: Calculating address for memory reference.
 203500: global: RegFile: Access to cc register 5, has data 0
 203500: global: RegFile: Access to cc register 5, has data 0
 203500: global: RegFile: Access to cc register 5, has data 0
 203500: system.cpu.iew: Sending instructions to commit, [sn:38] PC (0x82a8=>0x82ac).(0=>1).
 203500: system.cpu.iew: Setting Destination Register 64 (IntRegClass)
 203500: system.cpu.iew: Sending instructions to commit, [sn:35] PC (0x829c=>0x82a0).(0=>1).
 203500: system.cpu.iew: Setting Destination Register 61 (IntRegClass)
 203500: system.cpu.iew: Sending instructions to commit, [sn:31] PC (0x828c=>0x8290).(0=>1).
 203500: system.cpu.iew: Setting Destination Register 58 (IntRegClass)
 203500: system.cpu.iew: Processing [tid:0]
 203500: system.cpu.iew: [tid:0], Dispatch dispatched 0 instructions.
 203500: system.cpu.iew: IQ has 52 free entries (Can schedule: 0).  LQ has 25 free entries. SQ has 22 free entries.
 204000: system.cpu.iew.lsq.thread0: Writeback event [sn:32].
 204000: global: RegFile: Access to cc register 5, has data 0
 204000: global: RegFile: Access to cc register 5, has data 0
 204000: global: RegFile: Access to cc register 5, has data 0
setIntRegOperandT0 : 00033424 `  ldr   r7, [sp, #332]'
 204000: global: RegFile: Setting int register 59 to 0
 204000: system.cpu.iew: Current wb cycle: 0, width: 8, numInst: 0
wbActual:0
 204000: system.cpu.iew: Issue: Processing [tid:0]
 204000: system.cpu.iew: [tid:0] Not blocked, so attempting to run dispatch.
 204000: system.cpu.iew: Execute: Executing instructions from IQ.
 204000: system.cpu.iew: Execute: Processing PC (0x82a4=>0x82a8).(0=>1), [tid:0] [sn:37].
 204000: global: RegFile: Access to cc register 5, has data 0
 204000: global: RegFile: Access to cc register 5, has data 0
 204000: global: RegFile: Access to cc register 5, has data 0
 204000: global: RegFile: Access to int register 61, has data 0x1
setIntRegOperandT0 : 00033444 `  add   r1, r3, #1'
 204000: global: RegFile: Setting int register 63 to 0x2
 204000: system.cpu.iew: Current wb cycle: 0, width: 8, numInst: 1
wbActual:1
 204000: system.cpu.iew: Sending instructions to commit, [sn:32] PC (0x8290=>0x8294).(0=>1).
 204000: system.cpu.iew: Setting Destination Register 59 (IntRegClass)
 204000: system.cpu.iew: Sending instructions to commit, [sn:37] PC (0x82a4=>0x82a8).(0=>1).
 204000: system.cpu.iew: Setting Destination Register 63 (IntRegClass)
 204000: system.cpu.iew: Processing [tid:0]
 204000: system.cpu.iew: [tid:0], Dispatch dispatched 0 instructions.
 204000: system.cpu.iew: IQ has 53 free entries (Can schedule: 0).  LQ has 25 free entries. SQ has 22 free entries.
 204500: system.cpu.iew: Issue: Processing [tid:0]
 204500: system.cpu.iew: [tid:0] Not blocked, so attempting to run dispatch.
 204500: system.cpu.iew: Processing [tid:0]
 204500: system.cpu.iew: [tid:0], Dispatch dispatched 0 instructions.
 204500: system.cpu.iew: IQ has 53 free entries (Can schedule: 0).  LQ has 25 free entries. SQ has 22 free entries.
 205000: system.cpu.iew.lsq.thread0: Writeback event [sn:17].
 205000: global: RegFile: Access to cc register 5, has data 0
 205000: global: RegFile: Access to cc register 5, has data 0
 205000: global: RegFile: Access to cc register 5, has data 0
setIntRegOperandT0 : 00033388 `  ldr   r12, [pc, #664]'
 205000: global: RegFile: Setting int register 54 to 0
 205000: system.cpu.iew: Current wb cycle: 0, width: 8, numInst: 0
wbActual:0
 205000: system.cpu.iew: Issue: Processing [tid:0]
 205000: system.cpu.iew: [tid:0] Not blocked, so attempting to run dispatch.
 205000: system.cpu.iew: Sending instructions to commit, [sn:17] PC (0x826c=>0x8270).(0=>1).
 205000: system.cpu.iew: Setting Destination Register 54 (IntRegClass)
 205000: system.cpu.iew: Processing [tid:0]
 205000: system.cpu.iew: [tid:0], Dispatch dispatched 0 instructions.
 205000: system.cpu.iew: IQ has 55 free entries (Can schedule: 0).  LQ has 25 free entries. SQ has 22 free entries.
 205500: system.cpu.iew: Issue: Processing [tid:0]
 205500: system.cpu.iew: [tid:0] Not blocked, so attempting to run dispatch.
 205500: system.cpu.iew: Execute: Executing instructions from IQ.
 205500: system.cpu.iew: Execute: Processing PC (0x8274=>0x8278).(0=>1), [tid:0] [sn:25].
 205500: global: RegFile: Access to cc register 5, has data 0
 205500: global: RegFile: Access to cc register 5, has data 0
 205500: global: RegFile: Access to cc register 5, has data 0
 205500: global: RegFile: Access to int register 54, has data 0
 205500: global: RegFile: Setting cc register 6 to 0x1
 205500: global: RegFile: Setting cc register 7 to 0
 205500: global: RegFile: Setting cc register 8 to 0x1
 205500: system.cpu.iew: Current wb cycle: 0, width: 8, numInst: 0
wbActual:0
 205500: system.cpu.iew: Sending instructions to commit, [sn:25] PC (0x8274=>0x8278).(0=>1).
 205500: system.cpu.iew: Setting Destination Register 6 (CCRegClass)
 205500: system.cpu.iew: Setting Destination Register 7 (CCRegClass)
 205500: system.cpu.iew: Setting Destination Register 8 (CCRegClass)
 205500: system.cpu.iew: Processing [tid:0]
 205500: system.cpu.iew: [tid:0], Dispatch dispatched 0 instructions.
 205500: system.cpu.iew: IQ has 59 free entries (Can schedule: 0).  LQ has 25 free entries. SQ has 22 free entries.
 206000: system.cpu.iew: Issue: Processing [tid:0]
 206000: system.cpu.iew: [tid:0] Not blocked, so attempting to run dispatch.
 206000: system.cpu.iew: Execute: Executing instructions from IQ.
 206000: system.cpu.iew: Execute: Processing PC (0x827c=>0x8280).(0=>1), [tid:0] [sn:27].
 206000: global: RegFile: Access to cc register 5, has data 0
 206000: global: RegFile: Access to cc register 8, has data 0x1
 206000: global: RegFile: Access to cc register 5, has data 0
 206000: global: RegFile: Access to int register 51, has data 0x89a8
setIntRegOperandT0 : 00033404 `  mov   r6, r3'
 206000: global: RegFile: Setting int register 57 to 0x89a8
 206000: system.cpu.iew: Current wb cycle: 0, width: 8, numInst: 0
wbActual:0
 206000: system.cpu.iew: Execute: Executing instructions from IQ.
 206000: system.cpu.iew: Execute: Processing PC (0x8294=>0x8298).(0=>1), [tid:0] [sn:33].
 206000: global: RegFile: Access to cc register 6, has data 0x1
 206000: global: RegFile: Access to cc register 8, has data 0x1
 206000: global: RegFile: Access to cc register 5, has data 0
 206000: global: RegFile: Access to int register 54, has data 0
setIntRegOperandT0 : 00033428 `  moveq   r2, r12'
 206000: global: RegFile: Setting int register 60 to 0
 206000: system.cpu.iew: Current wb cycle: 0, width: 8, numInst: 1
wbActual:1
 206000: system.cpu.iew: Execute: Executing instructions from IQ.
 206000: system.cpu.iew: Execute: Processing PC (0x8298=>0x829c).(0=>1), [tid:0] [sn:34].
 206000: global: RegFile: Access to cc register 6, has data 0x1
 206000: global: RegFile: Access to cc register 5, has data 0
 206000: global: RegFile: Access to cc register 5, has data 0
 206000: system.cpu.iew: Current wb cycle: 0, width: 8, numInst: 2
wbActual:2
 206000: system.cpu.iew: Execute: Executing instructions from IQ.
 206000: system.cpu.iew: Execute: Processing PC (0x82ac=>0x82b0).(0=>1), [tid:0] [sn:39].
 206000: global: RegFile: Access to cc register 5, has data 0
 206000: global: RegFile: Access to cc register 8, has data 0x1
 206000: global: RegFile: Access to cc register 5, has data 0
 206000: global: RegFile: Access to int register 63, has data 0x2
setIntRegOperandT0 : 00033452 `  mov   r1, r1, LSL #2'
 206000: global: RegFile: Setting int register 65 to 0x8
 206000: system.cpu.iew: Current wb cycle: 0, width: 8, numInst: 3
wbActual:3
 206000: system.cpu.iew: Sending instructions to commit, [sn:27] PC (0x827c=>0x8280).(0=>1).
 206000: system.cpu.iew: Setting Destination Register 57 (IntRegClass)
 206000: system.cpu.iew: Sending instructions to commit, [sn:33] PC (0x8294=>0x8298).(0=>1).
 206000: system.cpu.iew: Setting Destination Register 60 (IntRegClass)
 206000: system.cpu.iew: Sending instructions to commit, [sn:34] PC (0x8298=>0x829c).(0=>1).
 206000: system.cpu.iew: Sending instructions to commit, [sn:39] PC (0x82ac=>0x82b0).(0=>1).
 206000: system.cpu.iew: Setting Destination Register 65 (IntRegClass)
 206000: system.cpu.iew: Processing [tid:0]
 206000: system.cpu.iew: [tid:0], Dispatch dispatched 0 instructions.
 206000: system.cpu.iew: IQ has 60 free entries (Can schedule: 0).  LQ has 25 free entries. SQ has 22 free entries.
 206000: global: RegFile: Access to cc register 5, has data 0
 206000: global: RegFile: Access to cc register 5, has data 0
 206000: global: RegFile: Access to cc register 5, has data 0
 206500: system.cpu.iew: Issue: Processing [tid:0]
[...]
2398500: system.cpu.iew: Execute: Processing PC (0x12294=>0x12298).(0=>1), [tid:0] [sn:2446].
2398500: system.cpu.iew: Execute: Calculating address for memory reference.
2398500: global: RegFile: Access to int register 134, has data 0x83fc0
2398500: global: RegFile: Access to cc register 5, has data 0
2398500: global: RegFile: Access to cc register 5, has data 0
2398500: global: RegFile: Access to cc register 5, has data 0
2398500: system.cpu.iew: Execute: Executing instructions from IQ.
2398500: system.cpu.iew: Execute: Processing PC (0x12294=>0x12298).(1=>2), [tid:0] [sn:2447].
2398500: global: RegFile: Access to cc register 5, has data 0
2398500: global: RegFile: Access to cc register 5, has data 0
2398500: global: RegFile: Access to cc register 5, has data 0
2398500: global: RegFile: Access to int register 134, has data 0x83fc0
setIntRegOperandT0 : 00074388 `  addi_uop   r1, r1, #4'
2398500: global: RegFile: Setting int register 135 to 0x83fc4
2398500: system.cpu.iew: Current wb cycle: 0, width: 8, numInst: 0
wbActual:0
2398500: system.cpu.iew: Execute: Executing instructions from IQ.
2398500: system.cpu.iew: Execute: Processing PC (0x122a4=>0x122a8).(0=>1), [tid:0] [sn:2451].
2398500: system.cpu.iew: Execute: Instruction was squashed. PC: (0x122a4=>0x122a8).(0=>1), [tid:0] [sn:2451]
2398500: system.cpu.iew: Execute: Executing instructions from IQ.
2398500: system.cpu.iew: Execute: Processing PC (0x122a4=>0x122a8).(1=>2), [tid:0] [sn:2452].
2398500: global: RegFile: Access to cc register 5, has data 0
2398500: global: RegFile: Access to cc register 5, has data 0
2398500: global: RegFile: Access to cc register 5, has data 0
2398500: global: RegFile: Access to int register 55, has data 0x4a8
setIntRegOperandT0 : 00074404 `  addi_uop   r0, r0, #4'
2398500: global: RegFile: Setting int register 65 to 0x4ac
2398500: system.cpu.iew: Current wb cycle: 0, width: 8, numInst: 1
wbActual:1
2398500: system.cpu.iew: Sending instructions to commit, [sn:2447] PC (0x12294=>0x12298).(1=>2).
2398500: system.cpu.iew: Setting Destination Register 135 (IntRegClass)
2398500: system.cpu.iew: Sending instructions to commit, [sn:2452] PC (0x122a4=>0x122a8).(1=>2).
2398500: system.cpu.iew: Setting Destination Register 65 (IntRegClass)
2398500: system.cpu.iew: Processing [tid:0]
2398500: system.cpu.iew: [tid:0], Dispatch dispatched 0 instructions.
2398500: system.cpu.iew: IQ has 60 free entries (Can schedule: 0).  LQ has 28 free entries. SQ has 32 free entries.
2399000: system.cpu.iew: Issue: Processing [tid:0]
2399000: system.cpu.iew: [tid:0]: ROB is still squashing.
2399000: system.cpu.iew: [tid:0]: Removing incoming rename instructions
2399000: system.cpu.iew: [tid:0]: Stall from Commit stage detected.
2399000: system.cpu.iew: [tid:0]: Blocking.
2399000: system.cpu.iew: Processing [tid:0]
2399000: system.cpu.iew: [tid:0], Dispatch dispatched 0 instructions.
2399000: system.cpu.iew: IQ has 60 free entries (Can schedule: 0).  LQ has 28 free entries. SQ has 32 free entries.
2399500: system.cpu.iew.lsq.thread0: Writeback event [sn:2446].
2399500: global: RegFile: Access to cc register 5, has data 0
2399500: global: RegFile: Access to cc register 5, has data 0
2399500: global: RegFile: Access to cc register 5, has data 0
setIntRegOperandT0 : 00074388 `  ldr   lr, [r1] #4'
2399500: global: RegFile: Setting int register 63 to 0x846a0
2399500: system.cpu.iew: Current wb cycle: 0, width: 8, numInst: 0
wbActual:0
2399500: system.cpu.iew: Issue: Processing [tid:0]
2399500: system.cpu.iew: [tid:0]: Done blocking, switching to unblocking.
2399500: system.cpu.iew: [tid:0]: Reading instructions out of the skid buffer 0.
2399500: system.cpu.iew: [tid:0]: Done unblocking.
2399500: system.cpu.iew: [tid:0] Not blocked, so attempting to run dispatch.
2399500: system.cpu.iew: Sending instructions to commit, [sn:2446] PC (0x12294=>0x12298).(0=>1).
2399500: system.cpu.iew: Setting Destination Register 63 (IntRegClass)
2399500: system.cpu.iew: Processing [tid:0]
2399500: system.cpu.iew: [tid:0], Dispatch dispatched 0 instructions.
2399500: system.cpu.iew: IQ has 61 free entries (Can schedule: 0).  LQ has 28 free entries. SQ has 32 free entries.
2400000: system.cpu.iew: Issue: Processing [tid:0]
2400000: system.cpu.iew: [tid:0] Not blocked, so attempting to run dispatch.
2400000: system.cpu.iew: Processing [tid:0]
2400000: system.cpu.iew: [tid:0], Dispatch dispatched 0 instructions.
2400000: system.cpu.iew: IQ has 61 free entries (Can schedule: 0).  LQ has 28 free entries. SQ has 32 free entries.
2400500: system.cpu.iew: Issue: Processing [tid:0]
2400500: system.cpu.iew: [tid:0] Not blocked, so attempting to run dispatch.
2400500: system.cpu.iew: Processing [tid:0]
2400500: system.cpu.iew: [tid:0], Dispatch dispatched 0 instructions.
2400500: system.cpu.iew: IQ has 61 free entries (Can schedule: 0).  LQ has 28 free entries. SQ has 32 free entries.
2401000: system.cpu.iew: Issue: Processing [tid:0]
2401000: system.cpu.iew: [tid:0] Not blocked, so attempting to run dispatch.
2401000: system.cpu.iew: Processing [tid:0]
2401000: system.cpu.iew: [tid:0], Dispatch dispatched 0 instructions.
2401000: system.cpu.iew: IQ has 61 free entries (Can schedule: 0).  LQ has 28 free entries. SQ has 32 free entries.
2401500: system.cpu.iew: Issue: Processing [tid:0]
2401500: system.cpu.iew: [tid:0] Not blocked, so attempting to run dispatch.
2401500: system.cpu.iew: Processing [tid:0]
2401500: system.cpu.iew: [tid:0], Dispatch dispatched 0 instructions.
2401500: system.cpu.iew: IQ has 61 free entries (Can schedule: 0).  LQ has 28 free entries. SQ has 32 free entries.
2402000: system.cpu.iew.lsq.thread0: Writeback event [sn:2413].
2402000: system.cpu.iew: Issue: Processing [tid:0]
2402000: system.cpu.iew: [tid:0] Not blocked, so attempting to run dispatch.
2402000: system.cpu.iew: [tid:0]: Issue: Adding PC (0x122b0=>0x122b4).(0=>1) [sn:2465] [tid:0] to IQ.
2402000: system.cpu.iew: [tid:0]: Issue: Memory instruction encountered, adding to LSQ.
2402000: system.cpu.iew: [tid:0]: Issue: Adding PC (0x122b0=>0x122b4).(1=>2) [sn:2466] [tid:0] to IQ.
2402000: system.cpu.iew: [tid:0]: Issue: Adding PC (0x122b4=>0x122b8).(0=>1) [sn:2467] [tid:0] to IQ.
2402000: system.cpu.iew: [tid:0]: Issue: Memory instruction encountered, adding to LSQ.
2402000: system.cpu.iew: [tid:0]: Issue: Adding PC (0x122b4=>0x122b8).(1=>2) [sn:2468] [tid:0] to IQ.
2402000: system.cpu.iew: [tid:0]: Issue: Adding PC (0x122b8=>0x122bc).(0=>1) [sn:2469] [tid:0] to IQ.
2402000: system.cpu.iew: [tid:0]: Issue: Memory instruction encountered, adding to LSQ.
2402000: system.cpu.iew: [tid:0]: Issue: Adding PC (0x122b8=>0x122bc).(1=>2) [sn:2470] [tid:0] to IQ.
2402000: system.cpu.iew: [tid:0]: Issue: Adding PC (0x122bc=>0x122c0).(0=>1) [sn:2471] [tid:0] to IQ.
2402000: system.cpu.iew: [tid:0]: Issue: Memory instruction encountered, adding to LSQ.
2402000: system.cpu.iew: [tid:0]: Issue: Adding PC (0x122bc=>0x122c0).(1=>2) [sn:2472] [tid:0] to IQ.
2402000: system.cpu.iew: Processing [tid:0]
2402000: system.cpu.iew: [tid:0], Dispatch dispatched 8 instructions.
2402000: system.cpu.iew: IQ has 54 free entries (Can schedule: 0).  LQ has 28 free entries. SQ has 28 free entries.
2402001: system.cpu.iew.lsq.thread0: Writeback event [sn:2440].
2402001: global: RegFile: Access to cc register 5, has data 0
2402001: global: RegFile: Access to cc register 5, has data 0
2402001: global: RegFile: Access to cc register 5, has data 0
setIntRegOperandT0 : 00074376 `  ldr   r6, [r1] #4'
2402001: global: RegFile: Setting int register 101 to 0x846a0
2402001: system.cpu.iew: Current wb cycle: 0, width: 8, numInst: 0
wbActual:0
2402500: system.cpu.iew: Issue: Processing [tid:0]
2402500: system.cpu.iew: [tid:0] Not blocked, so attempting to run dispatch.
2402500: system.cpu.iew: Execute: Executing instructions from IQ.
2402500: system.cpu.iew: Execute: Processing PC (0x122b0=>0x122b4).(1=>2), [tid:0] [sn:2466].
2402500: global: RegFile: Access to cc register 5, has data 0
2402500: global: RegFile: Access to cc register 5, has data 0
2402500: global: RegFile: Access to cc register 5, has data 0
2402500: global: RegFile: Access to int register 105, has data 0x4a8
setIntRegOperandT0 : 00074416 `  addi_uop   r0, r0, #4'
2402500: global: RegFile: Setting int register 136 to 0x4ac
2402500: system.cpu.iew: Current wb cycle: 0, width: 8, numInst: 1
wbActual:1
2402500: system.cpu.iew: Sending instructions to commit, [sn:2440] PC (0x12288=>0x1228c).(0=>1).
2402500: system.cpu.iew: Setting Destination Register 101 (IntRegClass)
2402500: system.cpu.iew: Sending instructions to commit, [sn:2466] PC (0x122b0=>0x122b4).(1=>2).
2402500: system.cpu.iew: Setting Destination Register 136 (IntRegClass)
2402500: system.cpu.iew: Processing [tid:0]
2402500: system.cpu.iew: [tid:0], Dispatch dispatched 0 instructions.
2402500: system.cpu.iew: IQ has 56 free entries (Can schedule: 0).  LQ has 28 free entries. SQ has 28 free entries.
2403000: system.cpu.iew: Issue: Processing [tid:0]
2403000: system.cpu.iew: [tid:0] Not blocked, so attempting to run dispatch.
2403000: system.cpu.iew: Execute: Executing instructions from IQ.
2403000: system.cpu.iew: Execute: Processing PC (0x122b0=>0x122b4).(0=>1), [tid:0] [sn:2465].
2403000: system.cpu.iew: Execute: Calculating address for memory reference.
2403000: global: RegFile: Access to int register 105, has data 0x4a8
2403000: global: RegFile: Access to cc register 5, has data 0
2403000: global: RegFile: Access to cc register 5, has data 0
2403000: global: RegFile: Access to cc register 5, has data 0
2403000: global: RegFile: Access to int register 101, has data 0x846a0
2403000: system.cpu.iew: Current wb cycle: 0, width: 8, numInst: 0
wbActual:0
2403000: system.cpu.iew: Execute: Executing instructions from IQ.
2403000: system.cpu.iew: Execute: Processing PC (0x122b4=>0x122b8).(1=>2), [tid:0] [sn:2468].
2403000: global: RegFile: Access to cc register 5, has data 0
2403000: global: RegFile: Access to cc register 5, has data 0
2403000: global: RegFile: Access to cc register 5, has data 0
2403000: global: RegFile: Access to int register 136, has data 0x4ac
setIntRegOperandT0 : 00074420 `  addi_uop   r0, r0, #4'
2403000: global: RegFile: Setting int register 209 to 0x4b0
2403000: system.cpu.iew: Current wb cycle: 0, width: 8, numInst: 1
wbActual:1
2403000: system.cpu.iew: Sending instructions to commit, [sn:2465] PC (0x122b0=>0x122b4).(0=>1).
2403000: system.cpu.iew: Sending instructions to commit, [sn:2468] PC (0x122b4=>0x122b8).(1=>2).
2403000: system.cpu.iew: Setting Destination Register 209 (IntRegClass)
2403000: system.cpu.iew: Processing [tid:0]
2403000: system.cpu.iew: [tid:0], Dispatch dispatched 0 instructions.
2403000: system.cpu.iew: IQ has 57 free entries (Can schedule: 0).  LQ has 28 free entries. SQ has 28 free entries.
2403500: system.cpu.iew: Issue: Processing [tid:0]
2403500: system.cpu.iew: [tid:0] Not blocked, so attempting to run dispatch.
2403500: system.cpu.iew: Execute: Executing instructions from IQ.
2403500: system.cpu.iew: Execute: Processing PC (0x122b8=>0x122bc).(1=>2), [tid:0] [sn:2470].
2403500: global: RegFile: Access to cc register 5, has data 0
2403500: global: RegFile: Access to cc register 5, has data 0
2403500: global: RegFile: Access to cc register 5, has data 0
2403500: global: RegFile: Access to int register 209, has data 0x4b0
setIntRegOperandT0 : 00074424 `  addi_uop   r0, r0, #4'
2403500: global: RegFile: Setting int register 86 to 0x4b4
2403500: system.cpu.iew: Current wb cycle: 0, width: 8, numInst: 0
wbActual:0
2403500: system.cpu.iew: Sending instructions to commit, [sn:2470] PC (0x122b8=>0x122bc).(1=>2).
2403500: system.cpu.iew: Setting Destination Register 86 (IntRegClass)
2403500: system.cpu.iew: Processing [tid:0]
2403500: system.cpu.iew: [tid:0], Dispatch dispatched 0 instructions.
2403500: system.cpu.iew: IQ has 58 free entries (Can schedule: 0).  LQ has 28 free entries. SQ has 28 free entries.
T0 : 00074376 `  ldr   r6, [r1] #4'
T0 : 00074376 `  addi_uop   r1, r1, #4'
2404000: system.cpu.iew: Issue: Processing [tid:0]
2404000: system.cpu.iew: [tid:0] Not blocked, so attempting to run dispatch.
2404000: system.cpu.iew: Execute: Executing instructions from IQ.
2404000: system.cpu.iew: Execute: Processing PC (0x122bc=>0x122c0).(0=>1), [tid:0] [sn:2471].
2404000: system.cpu.iew: Execute: Calculating address for memory reference.
2404000: global: RegFile: Access to int register 86, has data 0x4b4
2404000: global: RegFile: Access to cc register 5, has data 0
2404000: global: RegFile: Access to cc register 5, has data 0
2404000: global: RegFile: Access to cc register 5, has data 0
2404000: global: RegFile: Access to int register 63, has data 0x846a0
2404000: system.cpu.iew: Current wb cycle: 0, width: 8, numInst: 0
wbActual:0
2404000: system.cpu.iew: Execute: Executing instructions from IQ.
2404000: system.cpu.iew: Execute: Processing PC (0x122bc=>0x122c0).(1=>2), [tid:0] [sn:2472].
2404000: global: RegFile: Access to cc register 5, has data 0
2404000: global: RegFile: Access to cc register 5, has data 0
2404000: global: RegFile: Access to cc register 5, has data 0
2404000: global: RegFile: Access to int register 86, has data 0x4b4
setIntRegOperandT0 : 00074428 `  addi_uop   r0, r0, #4'
2404000: global: RegFile: Setting int register 83 to 0x4b8
2404000: system.cpu.iew: Current wb cycle: 0, width: 8, numInst: 1
wbActual:1
2404000: system.cpu.iew: Sending instructions to commit, [sn:2471] PC (0x122bc=>0x122c0).(0=>1).
2404000: system.cpu.iew: Sending instructions to commit, [sn:2472] PC (0x122bc=>0x122c0).(1=>2).
2404000: system.cpu.iew: Setting Destination Register 83 (IntRegClass)
2404000: system.cpu.iew: Processing [tid:0]
2404000: system.cpu.iew: [tid:0], Dispatch dispatched 0 instructions.
2404000: system.cpu.iew: IQ has 58 free entries (Can schedule: 0).  LQ has 29 free entries. SQ has 28 free entries.
2404500: system.cpu.iew: Issue: Processing [tid:0]
2404500: system.cpu.iew: [tid:0] Not blocked, so attempting to run dispatch.
2404500: system.cpu.iew: Processing [tid:0]
2404500: system.cpu.iew: [tid:0], Dispatch dispatched 0 instructions.
2404500: system.cpu.iew: IQ has 58 free entries (Can schedule: 0).  LQ has 29 free entries. SQ has 28 free entries.
2405000: system.cpu.iew: Issue: Processing [tid:0]
2405000: system.cpu.iew: [tid:0] Not blocked, so attempting to run dispatch.
2405000: system.cpu.iew: Processing [tid:0]
2405000: system.cpu.iew: [tid:0], Dispatch dispatched 0 instructions.
2405000: system.cpu.iew: IQ has 58 free entries (Can schedule: 0).  LQ has 29 free entries. SQ has 28 free entries.
2405500: system.cpu.iew: Issue: Processing [tid:0]
2405500: system.cpu.iew: [tid:0] Not blocked, so attempting to run dispatch.
2405500: system.cpu.iew: Processing [tid:0]
2405500: system.cpu.iew: [tid:0], Dispatch dispatched 0 instructions.
2405500: system.cpu.iew: IQ has 58 free entries (Can schedule: 0).  LQ has 29 free entries. SQ has 28 free entries.
2406000: system.cpu.iew.lsq.thread0: Writeback event [sn:2414].
2406000: system.cpu.iew: Issue: Processing [tid:0]
2406000: system.cpu.iew: [tid:0] Not blocked, so attempting to run dispatch.
2406000: system.cpu.iew: Processing [tid:0]
2406000: system.cpu.iew: [tid:0], Dispatch dispatched 0 instructions.
2406000: system.cpu.iew: IQ has 58 free entries (Can schedule: 0).  LQ has 29 free entries. SQ has 28 free entries.
2406001: system.cpu.iew.lsq.thread0: Writeback event [sn:2442].
2406001: global: RegFile: Access to cc register 5, has data 0
2406001: global: RegFile: Access to cc register 5, has data 0
2406001: global: RegFile: Access to cc register 5, has data 0
setIntRegOperandT0 : 00074380 `  ldr   r7, [r1] #4'
2406001: global: RegFile: Setting int register 52 to 0x846b0
2406001: system.cpu.iew: Current wb cycle: 0, width: 8, numInst: 0
wbActual:0
2406002: system.cpu.iew.lsq.thread0: Writeback event [sn:2444].
2406002: global: RegFile: Access to cc register 5, has data 0
2406002: global: RegFile: Access to cc register 5, has data 0
2406002: global: RegFile: Access to cc register 5, has data 0
setIntRegOperandT0 : 00074384 `  ldr   r8, [r1] #4'
2406002: global: RegFile: Setting int register 96 to 0x846a4
2406002: system.cpu.iew: Current wb cycle: 0, width: 8, numInst: 1
wbActual:1
2406500: system.cpu.iew: Issue: Processing [tid:0]
2406500: system.cpu.iew: [tid:0] Not blocked, so attempting to run dispatch.
2406500: system.cpu.iew: Sending instructions to commit, [sn:2442] PC (0x1228c=>0x12290).(0=>1).
2406500: system.cpu.iew: Setting Destination Register 52 (IntRegClass)
2406500: system.cpu.iew: Sending instructions to commit, [sn:2444] PC (0x12290=>0x12294).(0=>1).
2406500: system.cpu.iew: Setting Destination Register 96 (IntRegClass)
2406500: system.cpu.iew: Processing [tid:0]
2406500: system.cpu.iew: [tid:0], Dispatch dispatched 0 instructions.
2406500: system.cpu.iew: IQ has 60 free entries (Can schedule: 0).  LQ has 29 free entries. SQ has 28 free entries.
2407000: system.cpu.iew: Issue: Processing [tid:0]
2407000: system.cpu.iew: [tid:0] Not blocked, so attempting to run dispatch.
2407000: system.cpu.iew: Execute: Executing instructions from IQ.
2407000: system.cpu.iew: Execute: Processing PC (0x122b4=>0x122b8).(0=>1), [tid:0] [sn:2467].
2407000: system.cpu.iew: Execute: Calculating address for memory reference.
2407000: global: RegFile: Access to int register 136, has data 0x4ac
2407000: global: RegFile: Access to cc register 5, has data 0
2407000: global: RegFile: Access to cc register 5, has data 0
2407000: global: RegFile: Access to cc register 5, has data 0
2407000: global: RegFile: Access to int register 52, has data 0x846b0
2407000: system.cpu.iew: Current wb cycle: 0, width: 8, numInst: 0
wbActual:0
2407000: system.cpu.iew: Execute: Executing instructions from IQ.
2407000: system.cpu.iew: Execute: Processing PC (0x122b8=>0x122bc).(0=>1), [tid:0] [sn:2469].
2407000: system.cpu.iew: Execute: Calculating address for memory reference.
2407000: global: RegFile: Access to int register 209, has data 0x4b0
2407000: global: RegFile: Access to cc register 5, has data 0
2407000: global: RegFile: Access to cc register 5, has data 0
2407000: global: RegFile: Access to cc register 5, has data 0
2407000: global: RegFile: Access to int register 96, has data 0x846a4
2407000: system.cpu.iew: Current wb cycle: 0, width: 8, numInst: 1
wbActual:1
2407000: system.cpu.iew: Sending instructions to commit, [sn:2467] PC (0x122b4=>0x122b8).(0=>1).
2407000: system.cpu.iew: Sending instructions to commit, [sn:2469] PC (0x122b8=>0x122bc).(0=>1).
2407000: system.cpu.iew: Processing [tid:0]
2407000: system.cpu.iew: [tid:0], Dispatch dispatched 0 instructions.
2407000: system.cpu.iew: IQ has 60 free entries (Can schedule: 0).  LQ has 29 free entries. SQ has 28 free entries.
2407500: system.cpu.iew: Issue: Processing [tid:0]
2407500: system.cpu.iew: [tid:0] Not blocked, so attempting to run dispatch.
2407500: system.cpu.iew: Processing [tid:0]
2407500: system.cpu.iew: [tid:0], Dispatch dispatched 0 instructions.
2407500: system.cpu.iew: IQ has 60 free entries (Can schedule: 0).  LQ has 29 free entries. SQ has 28 free entries.
T0 : 00074380 `  ldr   r7, [r1] #4'
T0 : 00074380 `  addi_uop   r1, r1, #4'
T0 : 00074384 `  ldr   r8, [r1] #4'
T0 : 00074384 `  addi_uop   r1, r1, #4'
T0 : 00074388 `  ldr   lr, [r1] #4'
T0 : 00074388 `  addi_uop   r1, r1, #4'
T0 : 00074392 `  add   pc, pc, r12'
T0 : 00074416 `  str   r6, [r0] #4'
checkViolations: sn:2465  ea:0 T0 : 00074416 `  str   r6, [r0] #4'
2408000: system.cpu.iew: Issue: Processing [tid:0]
2408000: system.cpu.iew: [tid:0] Not blocked, so attempting to run dispatch.
2408000: system.cpu.iew: Processing [tid:0]
2408000: system.cpu.iew: [tid:0], Dispatch dispatched 0 instructions.
2408000: system.cpu.iew: IQ has 60 free entries (Can schedule: 0).  LQ has 32 free entries. SQ has 28 free entries.
T0 : 00074416 `  str   r6, [r0] #4'
checkViolations: sn:2465  ea:0 T0 : 00074416 `  str   r6, [r0] #4'
